# avogadro generated ORCA input file 
# Basic Mode
# 
! RHF SP def2-SVP 

* xyz 0 1
   F        0.77827        0.03803       -0.00823
   C        2.14574       -0.03158       -0.02678
   C        2.83388       -1.26006       -0.01651
   C        4.21248       -1.23130       -0.03834
   F        5.00037       -2.35049       -0.06044
   C        4.89129       -0.02435       -0.08088
   C        6.36055       -0.12039       -0.24588
   C        7.67537       -0.91617       -0.45123
   C        8.80670       -1.93845       -0.36653
   C        9.70775       -3.16325       -0.10512
   C       11.18249       -2.76103       -0.30410
   C       12.02459       -3.90964        0.07318
   H       13.10836       -3.59958       -0.04989
   C       11.76271       -4.31171        1.51334
   C        9.40525       -4.35554       -1.06670
   C       10.27132       -5.47847       -0.69390
   H       10.01532       -6.33800       -1.37981
   C       11.71687       -5.08083       -0.84346
   C        9.97036       -5.86514        0.74524
   C       10.30486       -4.69580        1.66618
   H       10.09467       -5.00123        2.74121
   C        9.42060       -3.53766        1.32455
   C        2.19155       -2.45402       -0.01042
   C        2.85998       -3.74667       -0.01300
   N        3.40571       -4.76887       -0.01497
   C        0.75415       -2.58705       -0.02797
   N       -0.39782       -2.69636       -0.04201
   C        2.82873        1.20045       -0.05253
   F        2.03541        2.31735       -0.06347
   C        4.22718        1.25338       -0.07286
   C        4.87432        2.48269       -0.11362
   C        4.18123        3.75680        0.02546
   N        3.62457        4.77309       -0.10700
   C        6.31349        2.69888       -0.05644
   N        7.46371        2.83948       -0.01045
   H        6.53494        0.48248        0.64873
   H        5.92199       -0.11720       -1.34039
   H        8.30019       -0.03419        0.06941
   H        7.50621       -1.18568       -1.57427
   H        9.65089       -1.19677       -0.45635
   H        8.02771       -2.72290       -0.56092
   H       11.39555       -1.91706        0.38715
   H       11.29539       -2.56227       -1.38297
   H       11.95663       -3.44715        2.15828
   H       12.33254       -5.22456        1.67995
   H        9.57613       -3.99655       -2.09410
   H        8.35816       -4.66081       -0.84334
   H       11.87923       -4.76126       -1.88226
   H       12.28713       -5.92185       -0.46649
   H       10.62466       -6.70245        1.00167
   H        8.89253       -6.03861        0.82380
   H        9.66334       -2.68742        1.96781
   H        8.38316       -3.90052        1.33608
*

