# avogadro generated ORCA input file 
# Basic Mode
# 
! wB97X-D3 OPT def2-TZVP def2/J CPCM
%cpcm
  epsilon 3
end
%pal
 nprocs 4
end 

* xyz 0 1
   C        1.27628        0.40407        2.70969
   C        1.87962        0.46998        1.34180
   C        1.52718       -0.45531        0.34908
   C        2.11084       -0.36394       -0.91562
   N        2.78549        1.44626        1.06275
   C        3.37279        1.56378       -0.16003
   C        3.04125        0.64761       -1.18418
   C        3.64267        0.76218       -2.44373
   C        4.56458        1.78181       -2.68483
   C        4.89512        2.68891       -1.67452
   C        4.30639        2.58645       -0.39873
   O        4.59728        3.44498        0.61130
  Al        5.93802        4.67782        0.82995
   O        7.29401        4.44890       -0.38047
   C        8.08556        3.37008       -0.60323
   C        9.05266        3.45557       -1.60269
   C        9.89232        2.37451       -1.88308
   C        9.79300        1.15603       -1.16612
   C       10.70120       -0.02175       -1.46862
   C       11.69302        0.04506       -2.48169
   C       12.52659       -1.04304       -2.75660
   C       12.39981       -2.22586       -2.03553
   C       11.43778       -2.32485       -1.03567
   C       10.59899       -1.24296       -0.75244
   C        8.80365        1.09017       -0.15357
   C        7.96742        2.17514        0.12219
   O        5.24876        6.36685        0.68962
   C        5.85924        7.57306        0.81123
   C        7.23523        7.69978        1.09401
   C        7.82263        8.96278        1.20990
   C        7.05408       10.11660        1.04705
   C        5.68605       10.01165        0.76582
   C        5.08711        8.73565        0.64765
   N        3.75623        8.64041        0.37375
   C        2.97559        9.74112        0.20841
   C        3.53060       11.01779        0.31759
   C        4.89151       11.15351        0.59747
   H        0.55663       -0.43740        2.79947
   H        0.74039        1.35233        2.92364
   H        2.08036        0.26360        3.46201
   H        0.80858       -1.23997        0.55058
   H        1.83635       -1.08096       -1.68016
   H        3.39851        0.06826       -3.23920
   H        5.02408        1.87203       -3.66076
   H        5.60198        3.46879       -1.90603
   H        9.15569        4.37090       -2.17267
   H       10.60789        2.53002       -2.67097
   H       11.85432        0.92230       -3.08293
   H       13.27548       -0.96654       -3.53471
   H       13.04719       -3.06598       -2.25164
   H       11.33943       -3.24568       -0.47480
   H        9.88217       -1.39981        0.03405
   H        8.64485        0.21300        0.44842
   H        7.22916        2.06719        0.90473
   H        7.86340        6.83021        1.22692
   H        8.87970        9.04701        1.42719
   H        7.52707       11.08691        1.14050
   H        1.92214        9.62488       -0.00824
   H        2.91044       11.89504        0.18620
   H        5.32053       12.14485        0.68177
*

