# avogadro generated ORCA input file 
# Basic Mode
# 
! wB97X-D3 OPT def2-TZVP def2/J CPCM
%cpcm
  epsilon 3
end
%pal
 nprocs 4
end 

* xyz 0 1
   C       -9.85459        4.82825       -0.54038
   C       -9.36947        3.49263       -0.41017
   N      -10.89088        5.40376       -0.60360
   N       -9.79604        2.38942       -0.30974
   H       -8.65805        4.50458       -0.49954
   H       -7.82875        4.80373       -0.52064
   H       -7.52552        5.73248       -0.60567
   H       -6.99926        4.28360       -0.46442
   F       -8.38102        6.47333       -0.68293
   F       -7.18071        3.16869       -0.36078
   H       -6.72705        6.02052       -0.62598
   H       -6.20079        4.57164       -0.48473
   H       -5.89756        5.50039       -0.56976
   F       -6.54559        7.13543       -0.72962
   F       -5.34529        3.83080       -0.40747
   H       -5.06826        5.79955       -0.59086
   C       -4.35684        6.81149       -0.68023
   C       -3.87172        5.47588       -0.55002
   N       -3.93029        7.91471       -0.78066
   N       -2.83541        4.90038       -0.48680
*

