4
Coordinates from ORCA-job WO3 E -292.867322858118
  O      -1.224890      1.767350     -0.095800
  O       1.858030      2.115730     -0.104420
  O       0.618370     -0.727030     -0.016340
  W       0.417170      1.051980     -0.073440
4
Coordinates from ORCA-job WO3 E -292.877003205603
  O      -1.140821      1.730613     -0.094281
  O       1.784419      2.061402     -0.102467
  O       0.607953     -0.635960     -0.018892
  W       0.417129      1.051975     -0.074360
4
Coordinates from ORCA-job WO3 E -292.879713161334
  O      -1.170730      1.743597     -0.092979
  O       1.810391      2.080342     -0.101310
  O       0.611709     -0.667868     -0.016160
  W       0.417310      1.051959     -0.079551
4
Coordinates from ORCA-job WO3 E -292.880042585165
  O      -1.166813      1.742103     -0.085438
  O       1.806976      2.078029     -0.093746
  O       0.611229     -0.663386     -0.008810
  W       0.417288      1.051284     -0.102005
4
Coordinates from ORCA-job WO3 E -292.879557735993
  O      -1.151546      1.735517     -0.080740
  O       1.793745      2.068447     -0.088972
  O       0.609272     -0.646877     -0.004846
  W       0.417208      1.050944     -0.115442
4
Coordinates from ORCA-job WO3 E -292.888060658141
  O      -1.153477      1.737725     -0.037978
  O       1.794666      2.067886     -0.046075
  O       0.611326     -0.644970      0.037943
  W       0.416165      1.047389     -0.243890
4
Coordinates from ORCA-job WO3 E -292.888079482768
  O      -1.155617      1.738793     -0.038135
  O       1.795704      2.064034     -0.045699
  O       0.614987     -0.643069      0.038110
  W       0.413606      1.048271     -0.244276
4
Coordinates from ORCA-job WO3 E -292.888083071337
  O      -1.158164      1.740099     -0.038196
  O       1.796431      2.060820     -0.045435
  O       0.618062     -0.641735      0.038238
  W       0.412350      1.048846     -0.244607
4
Coordinates from ORCA-job WO3 E -292.888088124658
  O      -1.155549      1.738753     -0.038086
  O       1.795721      2.064291     -0.045676
  O       0.614799     -0.643246      0.038148
  W       0.413709      1.048232     -0.244386
4
Coordinates from ORCA-job WO3 E -292.888088470857
  O      -1.155966      1.738967     -0.038112
  O       1.795827      2.063607     -0.045630
  O       0.615407     -0.642897      0.038161
  W       0.413412      1.048353     -0.244419
4
Coordinates from ORCA-job WO3 E -292.888097329952
  O      -1.158813      1.740412     -0.038228
  O       1.796753      2.059115     -0.045231
  O       0.619553     -0.640715      0.038340
  W       0.411187      1.049219     -0.244881
4
Coordinates from ORCA-job WO3 E -292.888099082027
  O      -1.157146      1.739578     -0.038139
  O       1.796078      2.061602     -0.045454
  O       0.617156     -0.641832      0.038238
  W       0.412591      1.048682     -0.244646
4
Coordinates from ORCA-job WO3 E -292.888099137990
  O      -1.157044      1.739530     -0.038130
  O       1.796080      2.061842     -0.045466
  O       0.616978     -0.641994      0.038240
  W       0.412665      1.048652     -0.244644
4
Coordinates from ORCA-job WO3 E -292.888101285341
  O      -1.155490      1.738805     -0.038023
  O       1.795691      2.064489     -0.045626
  O       0.614717     -0.643463      0.038210
  W       0.413762      1.048199     -0.244562
4
Coordinates from ORCA-job WO3 E -292.888106527316
  O      -1.157805      1.739900     -0.038130
  O       1.796448      2.060881     -0.045335
  O       0.617974     -0.641645      0.038327
  W       0.412063      1.048894     -0.244861
4
Coordinates from ORCA-job WO3 E -292.888106565730
  O      -1.157607      1.739803     -0.038122
  O       1.796366      2.061151     -0.045361
  O       0.617708     -0.641752      0.038313
  W       0.412213      1.048828     -0.244830
4
Coordinates from ORCA-job WO3 E -292.888123116934
  O      -1.161529      1.741698     -0.038194
  O       1.797811      2.055113     -0.044723
  O       0.623328     -0.638906      0.038670
  W       0.409070      1.050125     -0.245754
4
Coordinates from ORCA-job WO3 E -292.888137931819
  O      -1.157541      1.739814     -0.037989
  O       1.796346      2.061303     -0.045240
  O       0.617635     -0.641966      0.038456
  W       0.412241      1.048879     -0.245227
4
Coordinates from ORCA-job WO3 E -292.888137985132
  O      -1.157458      1.739754     -0.037982
  O       1.796345      2.061486     -0.045252
  O       0.617470     -0.642015      0.038446
  W       0.412323      1.048805     -0.245213
4
Coordinates from ORCA-job WO3 E -292.888139924572
  O      -1.156408      1.739143     -0.037902
  O       1.796089      2.063312     -0.045380
  O       0.615767     -0.642705      0.038377
  W       0.413232      1.048280     -0.245095
4
Coordinates from ORCA-job WO3 E -292.888140149920
  O      -1.157009      1.739427     -0.037934
  O       1.796334      2.062422     -0.045303
  O       0.616606     -0.642262      0.038406
  W       0.412749      1.048443     -0.245169
4
Coordinates from ORCA-job WO3 E -292.888141112157
  O      -1.157916      1.739871     -0.037980
  O       1.796661      2.060994     -0.045181
  O       0.617931     -0.641583      0.038461
  W       0.412004      1.048747     -0.245300
4
Coordinates from ORCA-job WO3 E -292.888141023107
  O      -1.157650      1.739735     -0.037965
  O       1.796574      2.061433     -0.045217
  O       0.617526     -0.641785      0.038444
  W       0.412230      1.048646     -0.245263
4
Coordinates from ORCA-job WO3 E -292.888150422233
  O      -1.160387      1.741117     -0.038056
  O       1.797497      2.056922     -0.044780
  O       0.621674     -0.639615      0.038669
  W       0.409896      1.049605     -0.245832
4
Coordinates from ORCA-job WO3 E -292.888155953739
  O      -1.157954      1.739907     -0.037928
  O       1.796626      2.060818     -0.045115
  O       0.618062     -0.641499      0.038524
  W       0.411945      1.048804     -0.245482
4
Coordinates from ORCA-job WO3 E -292.888155992135
  O      -1.157904      1.739874     -0.037923
  O       1.796622      2.060929     -0.045122
  O       0.617965     -0.641547      0.038521
  W       0.411997      1.048774     -0.245475
4
Coordinates from ORCA-job WO3 E -292.888283354785
  O      -1.146904      1.733707     -0.036396
  O       1.793301      2.077906     -0.045598
  O       0.601678     -0.648430      0.038761
  W       0.420605      1.044846     -0.246767
4
Coordinates from ORCA-job WO3 E -292.888359303904
  O      -1.156319      1.738672     -0.036918
  O       1.796494      2.064381     -0.044515
  O       0.614707     -0.642356      0.039176
  W       0.413799      1.047334     -0.247743
4
Coordinates from ORCA-job WO3 E -292.888359458521
  O      -1.156092      1.738567     -0.036890
  O       1.796448      2.064911     -0.044543
  O       0.614286     -0.642740      0.039185
  W       0.414037      1.047291     -0.247751
4
Coordinates from ORCA-job WO3 E -292.888379354037
  O      -1.159954      1.740503     -0.037077
  O       1.797552      2.057785     -0.043922
  O       0.620506     -0.638574      0.039390
  W       0.410577      1.048316     -0.248392
4
Coordinates from ORCA-job WO3 E -292.888381026316
  O      -1.158785      1.739833     -0.037010
  O       1.797247      2.059799     -0.044088
  O       0.618639     -0.639512      0.039318
  W       0.411578      1.047909     -0.248219
4
Coordinates from ORCA-job WO3 E -292.888381086176
  O      -1.159224      1.740074     -0.037031
  O       1.797373      2.059084     -0.044027
  O       0.619307     -0.639197      0.039349
  W       0.411225      1.048069     -0.248290
4
Coordinates from ORCA-job WO3 E -292.888384024163
  O      -1.160910      1.740954     -0.037085
  O       1.797895      2.056358     -0.043765
  O       0.621828     -0.637901      0.039483
  W       0.409867      1.048619     -0.248634
4
Coordinates from ORCA-job WO3 E -292.888391020542
  O      -1.158236      1.739588     -0.036952
  O       1.796999      2.060541     -0.044125
  O       0.617927     -0.639909      0.039328
  W       0.411990      1.047810     -0.248252
4
Coordinates from ORCA-job WO3 E -292.888391046480
  O      -1.158213      1.739577     -0.036949
  O       1.797003      2.060605     -0.044127
  O       0.617881     -0.639940      0.039327
  W       0.412008      1.047788     -0.248252
4
Coordinates from ORCA-job WO3 E -292.888602351892
  O      -1.144394      1.733964     -0.034787
  O       1.792828      2.081472     -0.044037
  O       0.599828     -0.649251      0.040033
  W       0.420419      1.041845     -0.251209
4
Coordinates from ORCA-job WO3 E -292.888812615126
  O      -1.159355      1.740003     -0.035290
  O       1.798006      2.058733     -0.042101
  O       0.619717     -0.637811      0.041060
  W       0.410313      1.047105     -0.253669
4
Coordinates from ORCA-job WO3 E -292.888815576605
  O      -1.158990      1.739883     -0.035111
  O       1.798252      2.060834     -0.042106
  O       0.618321     -0.639002      0.041091
  W       0.411098      1.046315     -0.253874
4
Coordinates from ORCA-job WO3 E -292.888897587006
  O      -1.164406      1.741857     -0.035262
  O       1.799072      2.047236     -0.040917
  O       0.628715     -0.631662      0.041912
  W       0.405300      1.050599     -0.255734
4
Coordinates from ORCA-job WO3 E -292.888900981668
  O      -1.162764      1.741110     -0.035210
  O       1.798715      2.050553     -0.041214
  O       0.625950     -0.633302      0.041722
  W       0.406779      1.049669     -0.255298
4
Coordinates from ORCA-job WO3 E -292.888902550184
  O      -1.161743      1.740613     -0.035181
  O       1.798414      2.052362     -0.041392
  O       0.624346     -0.634190      0.041619
  W       0.407663      1.049245     -0.255046
4
Coordinates from ORCA-job WO3 E -292.888910730809
  O      -1.159194      1.739361     -0.035073
  O       1.797574      2.056533     -0.041778
  O       0.620539     -0.636198      0.041422
  W       0.409762      1.048334     -0.254570
4
Coordinates from ORCA-job WO3 E -292.888913319910
  O      -1.157371      1.738473     -0.034979
  O       1.796948      2.059412     -0.042028
  O       0.617886     -0.637590      0.041307
  W       0.411217      1.047735     -0.254300
4
Coordinates from ORCA-job WO3 E -292.888913268558
  O      -1.156977      1.738278     -0.034956
  O       1.796813      2.060044     -0.042081
  O       0.617303     -0.637890      0.041283
  W       0.411541      1.047598     -0.254245
4
Coordinates from ORCA-job WO3 E -292.888914128389
  O      -1.155862      1.737733     -0.034889
  O       1.796425      2.061770     -0.042220
  O       0.615702     -0.638716      0.041226
  W       0.412416      1.047244     -0.254117
4
Coordinates from ORCA-job WO3 E -292.888914183845
  O      -1.156042      1.737815     -0.034897
  O       1.796485      2.061512     -0.042200
  O       0.615936     -0.638584      0.041233
  W       0.412301      1.047287     -0.254137
4
Coordinates from ORCA-job WO3 E -292.888936857353
  O      -1.159987      1.739647     -0.034979
  O       1.797805      2.055365     -0.041579
  O       0.621487     -0.635451      0.041558
  W       0.409375      1.048468     -0.255000
4
Coordinates from ORCA-job WO3 E -292.888945181644
  O      -1.156846      1.738165     -0.034805
  O       1.796684      2.060292     -0.041994
  O       0.616966     -0.637863      0.041376
  W       0.411876      1.047436     -0.254577
4
Coordinates from ORCA-job WO3 E -292.888945870296
  O      -1.157494      1.738462     -0.034835
  O       1.796943      2.059320     -0.041904
  O       0.617873     -0.637385      0.041418
  W       0.411359      1.047633     -0.254679
4
Coordinates from ORCA-job WO3 E -292.888949849277
  O      -1.159273      1.739280     -0.034899
  O       1.797609      2.056538     -0.041632
  O       0.620424     -0.635997      0.041555
  W       0.409920      1.048210     -0.255024
