# avogadro generated ORCA input file 
# Basic Mode
# 
! wB97X-D3 OPT def2-TZVP def2/J CPCM
%cpcm
  epsilon 3
end
%pal
 nprocs 10
end 

* xyz 0 1
   C        0.81712        0.28256       -0.46471
   O        1.29173        1.53273       -0.13581
   C        2.35587        1.85405        0.65186
   C        2.64851        3.21022        0.84256
   C        1.93647        4.28489        0.28919
   C        2.46149        5.52120        0.65578
   C        1.93444        6.85230        0.23525
   S        3.79894        5.29387        1.65862
   C        3.72142        3.61172        1.63510
   C        4.57416        2.71589        2.28980
   O        5.58013        3.26102        3.02949
   C        6.55979        2.64696        3.77332
   C        4.29693        1.32587        2.11126
   C        4.99237        0.22084        2.65275
   C        4.46161       -1.01136        2.28187
   C        4.96604       -2.33542        2.68527
   C        6.05887       -2.59165        3.50503
   C        6.29575       -3.95672        3.70980
   C        5.39057       -4.78815        3.05244
   C        5.32991       -6.26765        3.03804
   S        4.15621       -7.14004        2.18377
   C        4.64919       -8.71034        2.58309
   C        3.95889       -9.92647        2.09560
   C        4.26255      -11.26402        2.34932
   C        3.39395      -12.16616        1.72288
   C        2.40482      -11.54562        0.97489
   C        1.33282      -12.22780        0.19275
   S        2.60447       -9.88362        1.08830
   C        5.76526       -8.54803        3.40919
   C        6.13181       -7.23290        3.65418
   C        7.30902       -7.29295        4.53025
   O        7.93730       -6.34895        4.97725
   N        7.61509       -8.58890        4.78478
   C        8.70992       -9.06266        5.60820
   C        6.72644       -9.38275        4.14098
   O        6.75450      -10.60050        4.18724
   S        4.30038       -3.80679        2.21969
   S        3.13501       -0.75721        1.28678
   C        3.20633        0.92538        1.30556
   H       -0.06579        0.39786       -1.12605
   H        0.49394       -0.26003        0.44830
   H        1.58967       -0.28979       -1.01971
   H        1.07241        4.17137       -0.35338
   H        1.04845        6.73334       -0.42359
   H        2.72246        7.40482       -0.31727
   H        1.64004        7.43443        1.13301
   H        7.19753        3.42912        4.23342
   H        7.20864        2.02739        3.11959
   H        6.10569        2.05753        4.59711
   H        5.85097        0.27029        3.29244
   H        6.67575       -1.82224        3.94887
   H        7.10920       -4.28966        4.32304
   H        5.07311      -11.61044        2.95891
   H        3.48885      -13.24023        1.81598
   H        1.42333      -13.33089        0.28321
   H        1.41844      -11.94578       -0.87714
   H        0.33916      -11.91523        0.57548
   H        9.29590       -8.21678        6.02595
   H        9.38954       -9.69484        4.99862
   H        8.31003       -9.66452        6.45139
*

