# avogadro generated ORCA input file 
# Basic Mode
# 
! wB97X-D3 OPT def2-TZVP def2/J CPCM
%cpcm
  epsilon 3
end
%pal
 nprocs 8
end 

* xyz 0 1
   C        1.28253       -0.02741        1.68880
   N        2.51808       -0.02553        0.90085
   C        3.18066        1.01502        0.30773
   C        2.70445        2.42999        0.31666
   C        1.36008        2.71139        0.00749
   C        0.88774        4.02549       -0.00175
   C        1.74723        5.07983        0.30251
   C        3.08093        4.82247        0.62059
   C        3.56841        3.50542        0.63254
   O        4.85153        3.27375        0.98277
   N        4.32567        0.58230       -0.30566
   C        5.29983        1.32165       -1.11276
   C        4.37018       -0.74433       -0.07338
   C        5.32960       -1.67486       -0.48170
   C        5.13927       -3.01812       -0.11009
   C        4.00987       -3.39776        0.64804
   C        3.05896       -2.43810        1.03977
   C        3.27497       -1.11252        0.65365
   O        1.82348       -0.12992       -2.56456
   H        1.26297       -0.40126       -1.79465
   H        0.87330        0.98797        1.83646
   H        1.49126       -0.43853        2.69887
   H        0.52030       -0.66145        1.18922
   H        0.67423        1.91410       -0.24964
   H       -0.14674        4.22629       -0.24896
   H        1.37873        6.09753        0.29606
   H        3.73572        5.64914        0.86623
   H        5.46294        3.98724        1.21483
   H        5.00505        2.37615       -1.26416
   H        5.36115        0.86477       -2.12294
   H        6.29989        1.27575       -0.63279
   H        6.19343       -1.37971       -1.06265
   H        5.86331       -3.76550       -0.40733
   H        3.87404       -4.43418        0.92829
   H        2.19087       -2.72496        1.61851
*

