34
Coordinates from ORCA-job BCF E -2208.621465833958
  C      -0.388380      4.424790      0.199570
  C      -1.117160      3.239110      0.057840
  C      -0.813170      5.409890      1.090970
  C      -2.294770      3.024230      0.811720
  C      -1.970730      5.215180      1.844170
  C      -2.710790      4.035890      1.709020
  C      -2.387740      0.286350      0.317340
  C      -1.073940      0.043190      0.783050
  C      -0.425910     -1.161030      0.488420
  C      -3.022490     -0.717320     -0.451950
  C      -2.361890     -1.915820     -0.742170
  C      -1.067520     -2.137750     -0.272760
  F       0.733810      4.620730     -0.536850
  F      -0.680780      2.323880     -0.844910
  F      -0.101110      6.556470      1.225220
  F      -2.377070      6.172140      2.715490
  F      -3.812950      3.879970      2.486210
  F      -4.268980     -0.536050     -0.958150
  F      -2.980230     -2.865090     -1.488270
  F      -0.433090     -3.302590     -0.556290
  F       0.830390     -1.383100      0.949350
  F      -0.419290      0.948910      1.553770
  B      -3.139120      1.666670      0.653490
  C      -4.735620      1.692370      0.832090
  C      -5.487880      2.831830      0.461200
  C      -6.877850      2.848400      0.617140
  C      -5.425280      0.577620      1.364200
  C      -7.540070      1.740340      1.145180
  C      -6.815360      0.608620      1.518510
  F      -4.892990      3.922700     -0.085800
  F      -7.586460      3.944750      0.248400
  F      -4.761110     -0.534270      1.771050
  F      -7.461940     -0.464430      2.038670
  F      -8.887860      1.763460      1.295610
34
Coordinates from ORCA-job BCF E -2208.643008241708
  C      -0.448630      4.441925      0.153609
  C      -1.175595      3.270934      0.021212
  C      -0.827862      5.386855      1.088876
  C      -2.301972      3.012198      0.808759
  C      -1.934506      5.159910      1.885844
  C      -2.660765      3.990028      1.742015
  C      -2.394847      0.300220      0.319208
  C      -1.126132      0.013126      0.833530
  C      -0.478107     -1.177173      0.550427
  C      -2.980080     -0.670715     -0.500362
  C      -2.335351     -1.860295     -0.793891
  C      -1.083179     -2.114533     -0.266025
  F       0.617564      4.666877     -0.623240
  F      -0.784022      2.408934     -0.923522
  F      -0.128178      6.514202      1.221598
  F      -2.295601      6.071388      2.796782
  F      -3.700237      3.808675      2.563857
  F      -4.172921     -0.464289     -1.068951
  F      -2.916384     -2.764674     -1.591157
  F      -0.460652     -3.260650     -0.543529
  F       0.730339     -1.428052      1.067943
  F      -0.508395      0.865345      1.658587
  B      -3.138404      1.667629      0.651324
  C      -4.719747      1.692784      0.828196
  C      -5.486715      2.781564      0.400922
  C      -6.862899      2.806134      0.551394
  C      -5.406534      0.627905      1.419987
  C      -7.511029      1.738380      1.144178
  C      -6.781622      0.648174      1.580890
  F      -4.918466      3.826303     -0.211048
  F      -7.570778      3.857470      0.121516
  F      -4.749104     -0.435928      1.894089
  F      -7.408674     -0.380888      2.163029
  F      -8.835842      1.760280      1.294482
34
Coordinates from ORCA-job BCF E -2208.645967803362
  C      -0.480875      4.441860      0.128869
  C      -1.210964      3.277755      0.003383
  C      -0.838305      5.368397      1.088370
  C      -2.313015      2.995135      0.802303
  C      -1.922458      5.123171      1.907695
  C      -2.640735      3.955381      1.752427
  C      -2.404176      0.318782      0.319004
  C      -1.155240      0.015816      0.848681
  C      -0.501806     -1.169465      0.581596
  C      -2.965488     -0.645223     -0.510807
  C      -2.330625     -1.834689     -0.803572
  C      -1.092824     -2.098747     -0.251417
  F       0.557048      4.680111     -0.663772
  F      -0.829136      2.427028     -0.943983
  F      -0.146176      6.484375      1.221269
  F      -2.262777      6.009874      2.835220
  F      -3.666815      3.766598      2.576022
  F      -4.150802     -0.441283     -1.077185
  F      -2.896527     -2.724164     -1.610531
  F      -0.476874     -3.235126     -0.518742
  F       0.685272     -1.424798      1.118563
  F      -0.544276      0.868508      1.665069
  B      -3.139251      1.668283      0.643564
  C      -4.700542      1.692181      0.817634
  C      -5.474229      2.760931      0.379983
  C      -6.845678      2.795767      0.527732
  C      -5.389431      0.648501      1.424942
  C      -7.490698      1.740214      1.141706
  C      -6.758652      0.660700      1.595111
  F      -4.908060      3.800669     -0.224636
  F      -7.548429      3.832501      0.087446
  F      -4.735330     -0.410427      1.891647
  F      -7.375967     -0.352013      2.191976
  F      -8.801487      1.763439      1.294963
34
Coordinates from ORCA-job BCF E -2208.642682387095
  C      -0.543369      4.490332      0.059813
  C      -1.272469      3.322085     -0.060312
  C      -0.837123      5.371838      1.086398
  C      -2.315356      2.992118      0.801670
  C      -1.859403      5.079057      1.973070
  C      -2.581169      3.910897      1.813720
  C      -2.404354      0.320861      0.319071
  C      -1.202580     -0.030602      0.928948
  C      -0.549512     -1.220045      0.666537
  C      -2.914792     -0.599853     -0.593058
  C      -2.277257     -1.789235     -0.891944
  C      -1.089418     -2.102607     -0.253408
  F       0.432055      4.774646     -0.796302
  F      -0.954028      2.514715     -1.072510
  F      -0.144192      6.489505      1.218508
  F      -2.137081      5.920308      2.963215
  F      -3.546762      3.674208      2.702082
  F      -4.050159     -0.345952     -1.244382
  F      -2.791468     -2.631447     -1.781679
  F      -0.472807     -3.240444     -0.521330
  F       0.586316     -1.523023      1.285819
  F      -0.643475      0.776150      1.831123
  B      -3.139303      1.666948      0.644662
  C      -4.697963      1.690391      0.817869
  C      -5.485301      2.713278      0.294781
  C      -6.859608      2.748901      0.438942
  C      -5.379818      0.694821      1.513681
  C      -7.495100      1.742417      1.146308
  C      -6.750633      0.709962      1.691139
  F      -4.928063      3.704164     -0.401833
  F      -7.572922      3.737728     -0.088937
  F      -4.713355     -0.316742      2.070567
  F      -7.357528     -0.252843      2.377034
  F      -8.807332      1.767504      1.301267
34
Coordinates from ORCA-job BCF E -2208.646198584586
  C      -0.542490      4.498164      0.073632
  C      -1.279272      3.337759     -0.069566
  C      -0.824285      5.354744      1.124774
  C      -2.320622      2.994326      0.787827
  C      -1.844413      5.047614      2.009373
  C      -2.576415      3.890627      1.821511
  C      -2.409763      0.327689      0.298087
  C      -1.186297      0.005810      0.877647
  C      -0.531247     -1.185814      0.633216
  C      -2.937092     -0.625875     -0.567857
  C      -2.297668     -1.819502     -0.843420
  C      -1.089618     -2.100217     -0.226219
  F       0.430507      4.796167     -0.778794
  F      -0.973200      2.551428     -1.102389
  F      -0.121162      6.461892      1.283123
  F      -2.108333      5.862889      3.023202
  F      -3.538071      3.634021      2.709623
  F      -4.092556     -0.400073     -1.194782
  F      -2.827957     -2.696228     -1.687445
  F      -0.470982     -3.241277     -0.471456
  F       0.624175     -1.459130      1.226939
  F      -0.609334      0.845482      1.738155
  B      -3.146183      1.674393      0.610372
  C      -4.702944      1.696824      0.791909
  C      -5.493966      2.715290      0.267376
  C      -6.867588      2.750449      0.415701
  C      -5.380134      0.705355      1.496772
  C      -7.497823      1.748417      1.134624
  C      -6.749495      0.720803      1.684222
  F      -4.939542      3.698403     -0.442685
  F      -7.584340      3.732193     -0.117921
  F      -4.707020     -0.299301      2.058749
  F      -7.351303     -0.236170      2.380378
  F      -8.808899      1.772887      1.295851
34
Coordinates from ORCA-job BCF E -2208.646319444048
  C      -0.541855      4.475615      0.074166
  C      -1.269238      3.307180     -0.036434
  C      -0.845898      5.368714      1.086562
  C      -2.319330      2.989243      0.817437
  C      -1.877647      5.089436      1.965051
  C      -2.598208      3.921652      1.810293
  C      -2.400254      0.319647      0.331315
  C      -1.170826     -0.010966      0.890902
  C      -0.518137     -1.196757      0.616903
  C      -2.938256     -0.619436     -0.543405
  C      -2.301954     -1.805103     -0.850522
  C      -1.085578     -2.094502     -0.255765
  F       0.442091      4.747623     -0.773420
  F      -0.943141      2.482019     -1.031552
  F      -0.152915      6.485876      1.213346
  F      -2.163866      5.941609      2.940920
  F      -3.575608      3.692912      2.688136
  F      -4.101336     -0.382286     -1.149871
  F      -2.841479     -2.666076     -1.703878
  F      -0.469833     -3.230144     -0.530691
  F       0.644252     -1.479432      1.191797
  F      -0.585470      0.811827      1.760769
  B      -3.135814      1.659167      0.675730
  C      -4.695297      1.684897      0.827866
  C      -5.467902      2.725010      0.323046
  C      -6.842451      2.767270      0.448805
  C      -5.390869      0.677999      1.488587
  C      -7.491860      1.748309      1.123361
  C      -6.762042      0.698210      1.652273
  F      -4.890899      3.725465     -0.342484
  F      -7.541953      3.770584     -0.065657
  F      -4.733681     -0.349030      2.027364
  F      -7.383162     -0.274688      2.306790
  F      -8.804916      1.778195      1.262790
34
Coordinates from ORCA-job BCF E -2208.646474818538
  C      -0.522865      4.474824      0.081840
  C      -1.251196      3.308984     -0.045273
  C      -0.843734      5.366393      1.089806
  C      -2.316911      2.991777      0.789106
  C      -1.891173      5.087742      1.949128
  C      -2.610412      3.921328      1.780085
  C      -2.405331      0.319562      0.308988
  C      -1.189816     -0.011488      0.897865
  C      -0.535667     -1.201573      0.645636
  C      -2.930750     -0.624044     -0.569797
  C      -2.293614     -1.813135     -0.858900
  C      -1.089449     -2.103413     -0.240790
  F       0.476340      4.747233     -0.748166
  F      -0.909949      2.485779     -1.037050
  F      -0.151493      6.482930      1.230422
  F      -2.194038      5.939842      2.920505
  F      -3.606614      3.694162      2.637005
  F      -4.080972     -0.386369     -1.199802
  F      -2.819731     -2.676527     -1.718748
  F      -0.472908     -3.243341     -0.499025
  F       0.614773     -1.484082      1.245681
  F      -0.617603      0.817505      1.770461
  B      -3.140007      1.667391      0.624361
  C      -4.696524      1.692384      0.808090
  C      -5.478408      2.739258      0.332477
  C      -6.849881      2.779414      0.486326
  C      -5.378854      0.676233      1.467956
  C      -7.485725      1.750531      1.157841
  C      -6.746433      0.692991      1.656784
  F      -4.914221      3.750330     -0.328302
  F      -7.559530      3.790050     -0.000034
  F      -4.711012     -0.360073      1.975394
  F      -7.355357     -0.290211      2.308132
  F      -8.796268      1.777653      1.322528
34
Coordinates from ORCA-job BCF E -2208.646468197053
  C      -0.531359      4.479208      0.076052
  C      -1.263023      3.314440     -0.048696
  C      -0.835257      5.362886      1.096942
  C      -2.318042      2.991886      0.798844
  C      -1.868781      5.077544      1.971958
  C      -2.592906      3.913343      1.804253
  C      -2.406425      0.322479      0.314623
  C      -1.187124     -0.007133      0.897034
  C      -0.531148     -1.195610      0.639666
  C      -2.932582     -0.618451     -0.566382
  C      -2.294622     -1.806750     -0.860901
  C      -1.087845     -2.097312     -0.247062
  F       0.455713      4.757350     -0.767143
  F      -0.937406      2.499214     -1.052964
  F      -0.138670      6.477365      1.236306
  F      -2.152749      5.920654      2.957355
  F      -3.571443      3.678377      2.679896
  F      -4.088427     -0.381862     -1.188264
  F      -2.823151     -2.669471     -1.720581
  F      -0.469573     -3.235354     -0.511136
  F       0.622037     -1.477916      1.234791
  F      -0.612519      0.822991      1.768120
  B      -3.142188      1.667717      0.636735
  C      -4.700179      1.691482      0.810759
  C      -5.484506      2.723942      0.305119
  C      -6.857595      2.761849      0.449310
  C      -5.383914      0.686897      1.489107
  C      -7.493680      1.746136      1.141634
  C      -6.753242      0.702905      1.669752
  F      -4.921533      3.722229     -0.376841
  F      -7.568574      3.758523     -0.064272
  F      -4.716189     -0.334122      2.028060
  F      -7.362749     -0.267402      2.340566
  F      -8.805679      1.772007      1.297888
34
Coordinates from ORCA-job BCF E -2208.646455156874
  C      -0.534768      4.478545      0.069205
  C      -1.264519      3.312128     -0.050063
  C      -0.839420      5.365597      1.086874
  C      -2.317785      2.990720      0.799936
  C      -1.872510      5.082700      1.963115
  C      -2.594764      3.916743      1.800274
  C      -2.405110      0.320522      0.319243
  C      -1.190263     -0.014686      0.907910
  C      -0.534762     -1.202701      0.648814
  C      -2.927300     -0.614713     -0.569611
  C      -2.288902     -1.801866     -0.867813
  C      -1.086897     -2.097887     -0.247862
  F       0.451002      4.755083     -0.775816
  F      -0.938853      2.493761     -1.051777
  F      -0.144867      6.481914      1.221068
  F      -2.157951      5.929886      2.944391
  F      -3.573986      3.684432      2.675871
  F      -4.078105     -0.371945     -1.198398
  F      -2.812753     -2.658429     -1.736249
  F      -0.468502     -3.234965     -0.514622
  F       0.613121     -1.491191      1.250431
  F      -0.621563      0.808374      1.789519
  B      -3.140633      1.665470      0.643100
  C      -4.698280      1.689880      0.815625
  C      -5.480212      2.727682      0.318032
  C      -6.853369      2.766708      0.460446
  C      -5.384215      0.681649      1.485897
  C      -7.491774      1.746497      1.143891
  C      -6.753613      0.698310      1.665312
  F      -4.914115      3.730553     -0.354600
  F      -7.562084      3.768382     -0.046120
  F      -4.718348     -0.344430      2.017579
  F      -7.365382     -0.275929      2.328026
  F      -8.803847      1.773246      1.298904
34
Coordinates from ORCA-job BCF E -2208.642815387434
  C      -0.532400      4.473549      0.067766
  C      -1.263154      3.307571     -0.048724
  C      -0.838268      5.364374      1.081614
  C      -2.318343      2.990259      0.800190
  C      -1.873058      5.085560      1.957055
  C      -2.595926      3.919724      1.796964
  C      -2.406237      0.320491      0.321736
  C      -1.194417     -0.017282      0.915105
  C      -0.537493     -1.203804      0.654170
  C      -2.924149     -0.610215     -0.573759
  C      -2.284302     -1.795947     -0.874760
  C      -1.085478     -2.094798     -0.250693
  F       0.455192      4.746175     -0.776303
  F      -0.936264      2.485114     -1.046723
  F      -0.142857      6.480505      1.213249
  F      -2.159435      5.936510      2.934713
  F      -3.577503      3.691393      2.670977
  F      -4.071386     -0.363594     -1.207653
  F      -2.803654     -2.648038     -1.750255
  F      -0.465465     -3.230394     -0.519933
  F       0.607275     -1.495482      1.259789
  F      -0.630314      0.802856      1.802549
  B      -3.141914      1.665355      0.645711
  C      -4.699262      1.689675      0.818837
  C      -5.481598      2.727973      0.322993
  C      -6.854624      2.766495      0.465629
  C      -5.384958      0.680095      1.487193
  C      -7.492512      1.745010      1.147472
  C      -6.754205      0.696031      1.666834
  F      -4.915859      3.731595     -0.348847
  F      -7.563740      3.768529     -0.039468
  F      -4.718780     -0.346932      2.016589
  F      -7.365692     -0.279415      2.327882
  F      -8.804550      1.771101      1.302627
34
Coordinates from ORCA-job BCF E -2208.645823332358
  C      -0.497825      4.392382      0.046201
  C      -1.249573      3.238560     -0.032861
  C      -0.814280      5.334645      1.005564
  C      -2.331417      2.983247      0.798603
  C      -1.871947      5.117615      1.868556
  C      -2.609352      3.958736      1.746292
  C      -2.426867      0.320876      0.357209
  C      -1.254973     -0.043096      1.010814
  C      -0.569405     -1.202374      0.728858
  C      -2.879416     -0.548490     -0.621643
  C      -2.214549     -1.712217     -0.956989
  C      -1.058885     -2.043877     -0.282542
  F       0.516148      4.605675     -0.782402
  F      -0.909920      2.357574     -0.975903
  F      -0.099431      6.443098      1.103469
  F      -2.163959      6.020300      2.795864
  F      -3.623507      3.789304      2.596176
  F      -3.975555     -0.251237     -1.322269
  F      -2.666979     -2.504058     -1.921912
  F      -0.409493     -3.155468     -0.581530
  F       0.535517     -1.530307      1.382265
  F      -0.759671      0.744996      1.968608
  B      -3.167508      1.664876      0.678864
  C      -4.719774      1.687795      0.861713
  C      -5.506881      2.738902      0.403799
  C      -6.877049      2.770654      0.551191
  C      -5.403275      0.652633      1.489312
  C      -7.507865      1.724513      1.197161
  C      -6.769494      0.657599      1.672313
  F      -4.945283      3.759268     -0.246725
  F      -7.591108      3.784027      0.079298
  F      -4.734089     -0.395333      1.970865
  F      -7.378330     -0.341792      2.297077
  F      -8.819334      1.741013      1.355233
34
Coordinates from ORCA-job BCF E -2208.646462516255
  C      -0.530996      4.468562      0.062231
  C      -1.264377      3.303995     -0.051059
  C      -0.834159      5.361884      1.074478
  C      -2.319409      2.990669      0.799390
  C      -1.868483      5.087131      1.951678
  C      -2.593772      3.922522      1.794684
  C      -2.408051      0.321195      0.325670
  C      -1.200070     -0.018902      0.925708
  C      -0.540803     -1.203351      0.663525
  C      -2.920255     -0.604466     -0.577143
  C      -2.278418     -1.788891     -0.879999
  C      -1.083794     -2.090364     -0.250428
  F       0.456180      4.737507     -0.783382
  F      -0.940074      2.478849     -1.047740
  F      -0.136254      6.476885      1.203227
  F      -2.151943      5.940772      2.927742
  F      -3.575331      3.697794      2.669660
  F      -4.063391     -0.354038     -1.217207
  F      -2.792161     -2.636555     -1.763114
  F      -0.461396     -3.224355     -0.521098
  F       0.600040     -1.498562      1.274229
  F      -0.642686      0.798851      1.819975
  B      -3.144470      1.666381      0.648024
  C      -4.701442      1.689943      0.821587
  C      -5.484627      2.729846      0.330334
  C      -6.857545      2.766833      0.473040
  C      -5.386701      0.676489      1.484524
  C      -7.494586      1.741508      1.149726
  C      -6.755883      0.690371      1.663818
  F      -4.919529      3.736717     -0.337181
  F      -7.567437      3.770495     -0.027480
  F      -4.719966     -0.352844      2.008577
  F      -7.366878     -0.288666      2.319816
  F      -8.806663      1.765835      1.304715
34
Coordinates from ORCA-job BCF E -2208.646460269361
  C      -0.531638      4.471257      0.063720
  C      -1.264698      3.306500     -0.050905
  C      -0.833912      5.362850      1.077871
  C      -2.318681      2.991329      0.800315
  C      -1.867445      5.086234      1.955517
  C      -2.592676      3.921634      1.797322
  C      -2.407215      0.321846      0.324196
  C      -1.197093     -0.017114      0.920622
  C      -0.539430     -1.202849      0.659045
  C      -2.922723     -0.606199     -0.574766
  C      -2.282081     -1.791560     -0.876433
  C      -1.085556     -2.091840     -0.249456
  F       0.454602      4.742005     -0.782612
  F      -0.941420      2.483504     -1.049724
  F      -0.136363      6.477998      1.207682
  F      -2.150368      5.938179      2.933397
  F      -3.573004      3.695140      2.673245
  F      -4.068411     -0.357950     -1.211050
  F      -2.799265     -2.641769     -1.755215
  F      -0.464556     -3.227031     -0.518994
  F       0.603517     -1.496769      1.266972
  F      -0.636435      0.801925      1.811614
  B      -3.143620      1.666940      0.647714
  C      -4.700757      1.690269      0.820888
  C      -5.484043      2.728985      0.327103
  C      -6.857242      2.765121      0.468159
  C      -5.385933      0.678018      1.486023
  C      -7.494500      1.740665      1.146053
  C      -6.755449      0.691425      1.663650
  F      -4.919062      3.735510     -0.340999
  F      -7.567268      3.767582     -0.034976
  F      -4.719246     -0.349381      2.014008
  F      -7.366499     -0.286767      2.321182
  F      -8.806862      1.764353      1.299361
34
Coordinates from ORCA-job BCF E -2208.646460658837
  C      -0.531955      4.471051      0.061726
  C      -1.265833      3.306769     -0.052791
  C      -0.832434      5.362118      1.076889
  C      -2.319016      2.991641      0.799507
  C      -1.865190      5.085585      1.955526
  C      -2.591420      3.921600      1.797327
  C      -2.407710      0.322281      0.324406
  C      -1.198547     -0.016826      0.922601
  C      -0.540439     -1.202366      0.661610
  C      -2.922005     -0.605532     -0.575477
  C      -2.280742     -1.790777     -0.876777
  C      -1.085020     -2.091127     -0.248273
  F       0.453429      4.741776     -0.785589
  F      -0.944223      2.484397     -1.052649
  F      -0.133999      6.476678      1.206711
  F      -2.146369      5.936987      2.934368
  F      -3.570683      3.694991      2.674384
  F      -4.066916     -0.357164     -1.213140
  F      -2.796675     -2.640666     -1.756582
  F      -0.463443     -3.226162     -0.517236
  F       0.601622     -1.496442      1.271094
  F      -0.639414      0.802108      1.814677
  B      -3.144347      1.667469      0.647322
  C      -4.701354      1.690489      0.820883
  C      -5.484888      2.729623      0.328322
  C      -6.858121      2.765248      0.469353
  C      -5.386333      0.677249      1.484771
  C      -7.495190      1.739826      1.146009
  C      -6.755890      0.690116      1.662347
  F      -4.920147      3.737264     -0.338238
  F      -7.568341      3.768256     -0.032408
  F      -4.719477     -0.350508      2.011787
  F      -7.366714     -0.288970      2.318753
  F      -8.807545      1.763058      1.299318
