# avogadro generated ORCA input file 
# Basic Mode
# 
! wB97X-D3 OPT def2-TZVP def2/J CPCM
%cpcm
  epsilon 3
end
%pal
 nprocs 12
end 

* xyz 0 1
   C       -2.00715        2.77476       -0.00797
   C       -3.22577        1.95004       -0.00301
   C       -3.08547        0.59302       -0.00243
   C       -0.49816        2.31327       -0.01283
   C       -0.34582        0.88327       -0.01100
   C       -1.71514        0.05801       -0.00623
   C        0.83986        3.21996       -0.01984
   C        2.48104        3.02998       -0.02371
   C        1.16638        0.38019       -0.01408
   C        2.68466        1.05544       -0.02233
   C        3.82523        4.56289       -0.03418
   C        5.52013        3.22998       -0.02729
   C        4.21206       -0.19560       -0.02185
   C        5.60871        1.23077       -0.02066
   H       -2.37482        3.79996       -0.00718
   H       -4.07916        0.01272        0.00171
   H       -4.31170        2.31315        0.00091
   H       -1.86380       -1.03491       -0.00399
   H        0.49346        4.23608       -0.02017
   H        1.10368       -0.71283       -0.01203
   C        7.20613        3.59688       -0.01881
   C        8.70259        2.84705       -0.01148
   C        7.24111        0.74578       -0.01246
   C        8.72318        1.40127       -0.00939
   H        7.44831        4.64310       -0.01939
   H        7.43178       -0.33438       -0.01032
   C       10.19823        3.45290       -0.00651
   C       11.51834        2.76030       -0.00121
   C       10.20696        0.72691       -0.00426
   C       11.52835        1.39877       -0.00039
   H       12.57795        3.22416        0.00284
   H       10.47897        4.50820       -0.00560
   H       12.59388        0.93229        0.00399
   H       10.48602       -0.34522       -0.00159
   C        3.51256        7.54065       -0.08969
   C        3.11384        9.62539       -0.03033
   C        4.28422       -2.85779       -0.01700
   C        4.36572       -4.77383       -0.01123
  Si        2.51386       13.94509        0.10038
  Si        4.49441       -8.53752       -0.00294
   C        4.36845      -11.61634       -0.02863
   C        5.52750      -12.95266        0.04703
   H        5.75907      -13.52213       -0.91848
   H        5.26662      -14.07400        0.29520
   H        6.18469      -13.19064        0.91758
   C        3.22759      -13.02110        0.21297
   H        2.79931      -13.51688       -0.73722
   H        2.54882      -13.20540        1.09070
   H        3.37292      -14.17047        0.34801
   H        4.22380      -11.80126       -1.12395
   C        2.39268       -9.92273       -0.03962
   C        6.80895       -9.67420        0.16135
   C        7.95626      -11.01059        0.11493
   H        8.44184      -11.23140       -0.90457
   H        7.83184      -12.04393        0.51507
   H        8.96536      -10.92691        0.65759
   C        8.08771       -8.68817       -0.02658
   H        6.49143      -10.46323       -0.55843
   H        9.17633       -9.05872       -0.02545
   H        8.25242       -8.07759        0.87816
   H        8.18887       -8.21149       -1.01233
   C        1.17034       -9.01218        0.04637
   H        1.01714       -8.74369        1.09955
   H        0.13262       -9.38859       -0.19830
   H        1.25116       -8.29018       -0.75807
   C        1.34169      -11.33684       -0.16911
   H        2.59371      -10.36774        0.97295
   H        0.23213      -11.32934       -0.39104
   H        1.05738      -11.84879        0.81545
   H        1.37635      -12.12410       -0.97311
   C        4.30877       16.24035        0.02542
   C        2.03758       17.03746       -0.11935
   C        0.12444       15.28884        0.10368
   C        0.86263       18.38708       -0.33468
   H        0.47232       18.90048        0.65830
   H        0.16452       18.48900       -1.19395
   H        0.81915       19.50483       -0.75369
   C        2.70334       18.70400        0.06413
   H        2.93017       19.24924       -0.94976
   H        3.31992       19.00369        0.95370
   H        2.40561       19.80047        0.44047
   H        1.94030       17.10926        1.06921
   C        5.88302       15.98362        0.10851
   H        6.19089       15.98612        1.17333
   H        6.75674       16.77388        0.06953
   H        6.24222       15.69156       -0.89025
   C        4.99838       17.94554       -0.41983
   H        5.58806       18.43371        0.46328
   H        4.84181       19.11464       -0.46380
   H        5.63105       18.17911       -1.32244
   H        4.08601       16.71626        1.03215
   C       -1.27611       14.49811        0.02257
   H       -1.49093       14.07434       -0.96753
   H       -2.33415       14.98801       -0.03335
   H       -1.56086       14.12904        1.01403
   C       -0.96537       16.69545       -0.15343
   H       -1.46592       16.94879       -1.14831
   H       -1.10243       17.69709        0.38559
   H       -1.85600       16.81986        0.54976
   H        0.22377       15.75922        1.11173
*

