# avogadro generated ORCA input file 
# Basic Mode
# 
! wB97X-D3 OPT def2-TZVP def2/J CPCM
%cpcm
  epsilon 3
end
%pal
 nprocs 4
end 

* xyz 0 1
   C       -6.45927        3.29015        0.00000
   C       -5.95320        1.99699        0.00000
   C       -3.93967        3.19400        0.00000
   C       -4.54726        1.93702        0.00000
   H       -4.00729        0.99875       -0.00000
   H       -6.59415        1.12408       -0.00000
   S       -5.16426        4.35571        0.00000
   H       -7.50656        3.56599        0.00000
   C       -2.49118        3.52136        0.00000
   C       -1.98282        4.81566        0.00000
   C       -0.58399        4.88925        0.00000
   C        0.04041        3.64501        0.00000
   H       -0.05027        5.82776        0.00000
   H       -2.61122        5.69726        0.00000
   S       -1.17491        2.45488        0.00000
   C        1.50991        3.41271        0.00000
   C        2.11177        2.15885        0.00000
   C        3.50844        2.20420        0.00000
   C        4.04417        3.48648        0.00000
   H        4.11569        1.30839       -0.00000
   H        1.56117        1.23041       -0.00000
   S        2.74749        4.58292        0.00000
   C        5.50396        3.76531        0.00000
   C        6.16366        4.99609        0.00000
   C        7.56696        4.87641        0.00000
   C        8.01924        3.56346        0.00000
   H        8.24526        5.72053        0.00000
   H        5.66434        5.95641        0.00000
   S        6.68140        2.55500        0.00000
   H        9.05348        3.24189        0.00000
*

