30
Coordinates from ORCA-job TTN E -2283.583012020932
  C      -9.310660      1.040470      0.087880
  C      -9.237880     -0.349330      0.155730
  C      -8.144350      1.806580      0.081070
  H     -10.276280      1.527350      0.040250
  C      -7.998060     -0.986750      0.217510
  H     -10.147250     -0.936490      0.160520
  C      -6.880420      1.187050      0.142570
  H      -8.244040      2.882240      0.027440
  C      -6.805900     -0.235840      0.212110
  H      -7.984840     -2.067030      0.269160
  C      -5.686510      1.945460      0.136730
  C      -5.539450     -0.862660      0.274110
  C      -4.458110      1.303650      0.198390
  C      -4.384950     -0.093400      0.266810
  C      -3.303600      2.072910      0.190920
  C      -3.156550     -0.735210      0.328590
  C      -2.037150      1.446080      0.252860
  C      -1.962640      0.023210      0.322680
  C      -0.844980      2.196970      0.247140
  C       0.394830      1.559560      0.308960
  H      -0.858200      3.277240      0.195170
  C      -0.698710     -0.596320      0.384300
  C       0.467610      0.169780      0.377230
  H      -0.599030     -1.671970      0.438230
  H       1.304210      2.146710      0.303900
  H       1.433230     -0.317100      0.424950
  S      -5.656740      3.738940      0.052170
  S      -3.520520      3.853170      0.100450
  S      -5.322520     -2.642940      0.364290
  S      -3.186330     -2.528670      0.413430
30
Coordinates from ORCA-job TTN E -2283.594407019779
  C      -9.300361      1.047792      0.087617
  C      -9.226817     -0.355697      0.156439
  C      -8.157541      1.805563      0.080695
  H     -10.265759      1.535594      0.039197
  C      -8.011109     -0.987014      0.217757
  H     -10.135864     -0.944034      0.161227
  C      -6.883384      1.192355      0.142522
  H      -8.254090      2.883626      0.026506
  C      -6.808278     -0.241094      0.212528
  H      -7.994171     -2.069247      0.270358
  C      -5.696034      1.940994      0.137026
  C      -5.549481     -0.859053      0.273541
  C      -4.458403      1.308974      0.198364
  C      -4.384654     -0.098720      0.266884
  C      -3.293571      2.069304      0.191535
  C      -3.147022     -0.730744      0.328230
  C      -2.034775      1.451338      0.252498
  C      -1.959674      0.017900      0.322675
  C      -0.831936      2.197245      0.247029
  C       0.383770      1.565930      0.308350
  H      -0.848874      3.279468      0.194217
  C      -0.685516     -0.595309      0.384548
  C       0.457310      0.162452      0.377437
  H      -0.588975     -1.673363      0.438927
  H       1.292823      2.154255      0.303364
  H       1.422705     -0.325352      0.425898
  S      -5.644242      3.708154      0.054579
  S      -3.528845      3.821137      0.102683
  S      -5.314199     -2.610906      0.362048
  S      -3.198825     -2.497891      0.410870
30
Coordinates from ORCA-job TTN E -2283.597662297651
  C      -9.298390      1.054794      0.086861
  C      -9.224061     -0.362592      0.156836
  C      -8.171229      1.803867      0.080387
  H     -10.264649      1.541456      0.037586
  C      -8.024639     -0.986542      0.218155
  H     -10.133962     -0.950145      0.161530
  C      -6.883328      1.196052      0.142834
  H      -8.256831      2.883837      0.026013
  C      -6.807808     -0.244246      0.213130
  H      -7.996068     -2.069458      0.271991
  C      -5.704117      1.936736      0.137647
  C      -5.557988     -0.855419      0.273002
  C      -4.458564      1.311294      0.198616
  C      -4.384494     -0.101035      0.266694
  C      -3.285066      2.065670      0.192126
  C      -3.138939     -0.726484      0.327559
  C      -2.035245      1.454492      0.251928
  C      -1.959728      0.014199      0.322298
  C      -0.818409      2.196780      0.246731
  C       0.381015      1.572826      0.308006
  H      -0.846980      3.279691      0.192810
  C      -0.671825     -0.593619      0.384717
  C       0.455339      0.155445      0.378106
  H      -0.586228     -1.673585      0.439181
  H       1.290921      2.160370      0.303186
  H       1.421596     -0.331220      0.427367
  S      -5.630215      3.684225      0.057033
  S      -3.539568      3.795733      0.104533
  S      -5.303478     -2.585503      0.360184
  S      -3.212849     -2.473958      0.408502
30
Coordinates from ORCA-job TTN E -2283.597868221842
  C      -9.302029      1.055643      0.086537
  C      -9.227583     -0.363862      0.156703
  C      -8.173051      1.803888      0.080434
  H     -10.268947      1.540797      0.037034
  C      -8.026437     -0.986685      0.218285
  H     -10.138281     -0.950015      0.161294
  C      -6.882723      1.196049      0.143137
  H      -8.252374      2.884331      0.026377
  C      -6.807247     -0.244006      0.213343
  H      -7.991374     -2.069428      0.272626
  C      -5.704935      1.937085      0.137845
  C      -5.558807     -0.855737      0.273018
  C      -4.458532      1.310587      0.198868
  C      -4.384532     -0.100318      0.266667
  C      -3.284252      2.065996      0.192300
  C      -3.138123     -0.726829      0.327454
  C      -2.035811      1.454260      0.251890
  C      -1.960333      0.014204      0.322070
  C      -0.816614      2.196929      0.246745
  C       0.384536      1.574097      0.308153
  H      -0.851679      3.279672      0.192395
  C      -0.670000     -0.593646      0.384563
  C       0.458982      0.154591      0.378304
  H      -0.590678     -1.674090      0.438587
  H       1.295239      2.160242      0.303419
  H       1.425903     -0.330571      0.427663
  S      -5.628217      3.686582      0.056209
  S      -3.541774      3.797818      0.104852
  S      -5.301275     -2.587587      0.359873
  S      -3.214842     -2.476335      0.408908
30
Coordinates from ORCA-job TTN E -2283.597947890846
  C      -9.303904      1.056282      0.086814
  C      -9.229311     -0.364892      0.157096
  C      -8.173982      1.803472      0.080693
  H     -10.271899      1.538964      0.037614
  C      -8.027235     -0.986350      0.218430
  H     -10.141267     -0.948780      0.161973
  C      -6.881772      1.195751      0.143126
  H      -8.245452      2.884434      0.027236
  C      -6.806335     -0.243351      0.213124
  H      -7.983861     -2.068721      0.273419
  C      -5.705530      1.937556      0.137493
  C      -5.559369     -0.856004      0.272292
  C      -4.458488      1.309738      0.198553
  C      -4.384581     -0.099249      0.265986
  C      -3.283644      2.066425      0.191971
  C      -3.137568     -0.727081      0.326857
  C      -2.036671      1.453694      0.251560
  C      -1.961306      0.014587      0.321777
  C      -0.815683      2.196549      0.246540
  C       0.386309      1.574953      0.308478
  H      -0.858911      3.278918      0.191397
  C      -0.669197     -0.593345      0.385045
  C       0.460773      0.153777      0.379222
  H      -0.597835     -1.674414      0.439158
  H       1.298320      2.158756      0.303879
  H       1.428713     -0.328949      0.429069
  S      -5.626625      3.689638      0.054930
  S      -3.543708      3.800681      0.105188
  S      -5.299318     -2.590274      0.358310
  S      -3.216453     -2.479106      0.408319
30
Coordinates from ORCA-job TTN E -2283.597951213169
  C      -9.303489      1.056263      0.086600
  C      -9.228910     -0.364933      0.156505
  C      -8.173829      1.803422      0.080847
  H     -10.271880      1.538181      0.037350
  C      -8.027084     -0.986381      0.217977
  H     -10.141350     -0.948086      0.160936
  C      -6.881677      1.195634      0.143399
  H      -8.243857      2.884506      0.027649
  C      -6.806269     -0.243198      0.213252
  H      -7.982202     -2.068795      0.272533
  C      -5.705492      1.937647      0.137899
  C      -5.559326     -0.855970      0.272768
  C      -4.458491      1.309709      0.198977
  C      -4.384602     -0.099079      0.266491
  C      -3.283687      2.066524      0.192364
  C      -3.137644     -0.727063      0.327435
  C      -2.036752      1.453579      0.251761
  C      -1.961424      0.014763      0.322053
  C      -0.815795      2.196472      0.246319
  C       0.385943      1.574861      0.307971
  H      -0.860502      3.278772      0.190938
  C      -0.669386     -0.593307      0.385000
  C       0.460364      0.153700      0.378829
  H      -0.599508     -1.674427      0.439067
  H       1.298463      2.157882      0.303040
  H       1.428701     -0.328293      0.428434
  S      -5.626809      3.689893      0.054988
  S      -3.543585      3.801002      0.105801
  S      -5.299435     -2.590371      0.359177
  S      -3.216276     -2.479250      0.409189
30
Coordinates from ORCA-job TTN E -2283.597950732448
  C      -9.302976      1.056331      0.086799
  C      -9.228462     -0.364757      0.157103
  C      -8.173597      1.803515      0.080628
  H     -10.271825      1.537397      0.037748
  C      -8.026956     -0.986357      0.218471
  H     -10.141488     -0.947024      0.161878
  C      -6.881602      1.195486      0.143022
  H      -8.242377      2.884677      0.027358
  C      -6.806249     -0.243138      0.213061
  H      -7.980849     -2.068569      0.273583
  C      -5.705343      1.937595      0.137359
  C      -5.559212     -0.856151      0.272264
  C      -4.458478      1.309604      0.198551
  C      -4.384592     -0.099210      0.266013
  C      -3.283802      2.066470      0.192108
  C      -3.137745     -0.727232      0.326969
  C      -2.036793      1.453427      0.251659
  C      -1.961439      0.014798      0.321816
  C      -0.816035      2.196566      0.246542
  C       0.385411      1.574896      0.308420
  H      -0.862060      3.278817      0.191186
  C      -0.669514     -0.593368      0.384989
  C       0.459881      0.153815      0.379158
  H      -0.600773     -1.674553      0.438930
  H       1.298459      2.157128      0.303784
  H       1.428707     -0.327223      0.428931
  S      -5.627127      3.689730      0.054260
  S      -3.543267      3.800934      0.106126
  S      -5.299763     -2.590597      0.358157
  S      -3.215925     -2.479346      0.408679
