# avogadro generated ORCA input file 
# Basic Mode
# 
! wB97X-D3 OPT def2-TZVP def2/J CPCM
%cpcm
  epsilon 3
end
%pal
 nprocs 4
end 

* xyz 0 1
   F        4.27510       -0.81362       -3.19932
   C        5.43043       -0.05367       -3.13945
   C        5.08766        1.35543       -2.61296
   C        6.28067        2.37562       -2.44873
   C        7.24577        2.03278       -1.29477
   F        8.00023        0.90922       -1.57046
   F        8.11786        3.08997       -1.10009
   F        6.54287        1.83411       -0.11976
   S        7.29014        2.65315       -3.97116
  Mo        5.27879        2.79146       -5.30448
   S        3.70959        2.06305       -3.61598
   F        6.30857       -0.70827       -2.30115
   F        5.97456        0.01273       -4.40868
   F       -1.13760       -2.59698        0.49615
   C        0.06108       -2.76151        1.16407
   C       -0.11830       -2.59682        2.69012
   C       -0.51695       -1.14018        3.15711
   C       -1.67376       -0.47938        2.37488
   F       -2.79873       -1.28531        2.39943
   F       -1.98910        0.74155        2.94767
   F       -1.31390       -0.22175        1.06579
   S       -1.02950       -1.13222        4.92738
  Mo        1.13635       -1.98619        5.53167
   S        1.47824       -3.16766        3.44662
   F        0.49977       -4.04399        0.87970
   F        0.99277       -1.85850        0.68283
   F        3.03244       -0.09941        2.71475
   C        3.27266        0.75917        1.65672
   C        1.99846        1.56274        1.34058
   C        2.12651        2.44844        0.04526
   C        0.81302        3.14909       -0.34371
   F        0.46011        4.10095        0.59542
   F        0.96602        3.77621       -1.56785
   F       -0.20886        2.22296       -0.45467
   S        3.50600        3.67610        0.06444
  Mo        2.93649        4.27921        2.33678
   S        1.43151        2.45722        2.85319
   F        4.31582        1.59812        2.00319
   F        3.64545        0.00195        0.56064
   H        4.64103        1.23312       -1.60498
   H        5.82562        3.34879       -2.16188
   H       -0.92103       -3.30444        2.99100
   H        0.35399       -0.46294        3.04278
   H        1.20083        0.82299        1.11951
   H        2.36585        1.74350       -0.77930
*

