4
Coordinates from ORCA-job MoO3 E -293.954412819240
  O      -1.167890      1.744160     -0.095060
  O       1.780210      2.077310     -0.103330
  O       0.594770     -0.641140     -0.019110
  Mo      0.401920      1.079060      0.532860
4
Coordinates from ORCA-job MoO3 E -293.980660489875
  O      -1.127780      1.726648     -0.088959
  O       1.745145      2.051709     -0.096973
  O       0.589576     -0.597563     -0.014940
  Mo      0.402069      1.078596      0.516233
4
Coordinates from ORCA-job MoO3 E -293.998362758951
  O      -1.049734      1.692502     -0.079430
  O       1.676771      2.001455     -0.086943
  O       0.579637     -0.512449     -0.009174
  Mo      0.402336      1.077883      0.490907
4
Coordinates from ORCA-job MoO3 E -293.999006329703
  O      -1.062086      1.697901     -0.082087
  O       1.687558      2.009103     -0.089735
  O       0.581414     -0.525786     -0.011301
  Mo      0.402124      1.078172      0.498484
4
Coordinates from ORCA-job MoO3 E -293.999030601877
  O      -1.059150      1.696655     -0.082324
  O       1.684968      2.007105     -0.089986
  O       0.581153     -0.522587     -0.011705
  Mo      0.402039      1.078217      0.499374
4
Coordinates from ORCA-job MoO3 E -293.999033376999
  O      -1.058335      1.696332     -0.082738
  O       1.684244      2.006510     -0.090420
  O       0.581132     -0.521720     -0.012176
  Mo      0.401969      1.078267      0.500693
4
Coordinates from ORCA-job MoO3 E -293.999035169788
  O      -1.057802      1.696134     -0.083137
  O       1.683770      2.006135     -0.090834
  O       0.581123     -0.521186     -0.012610
  Mo      0.401920      1.078307      0.501941
4
Coordinates from ORCA-job MoO3 E -293.999035338945
  O      -1.057794      1.696139     -0.083165
  O       1.683765      2.006154     -0.090861
  O       0.581114     -0.521207     -0.012634
  Mo      0.401924      1.078303      0.502020
