# avogadro generated ORCA input file 
# Basic Mode
# 
! wB97X-D3 OPT def2-TZVP def2/J CPCM
%cpcm
  epsilon 3
end
%pal
 nprocs 4
end
 

* xyz 0 1
   O        1.15640        0.72843        0.37136
   C        2.12092        0.10748       -0.07792
   C        2.27997       -1.34686        0.24144
   C        3.07202        0.81107       -0.98940
   C        2.31202        1.70920       -1.95177
   N        1.68154        2.45427       -2.75014
   C        4.41287        0.71717       -0.90062
   C        5.63010        0.22953       -0.35694
   C        6.43728       -0.51322        0.43315
   C        7.95728       -0.51298        0.43389
   N        9.21824       -0.51278        0.43450
   C        5.89863       -1.52616        1.38493
   C        4.83722       -1.15013        2.37495
   O        6.38988       -2.65454        1.40581
   C        5.65388        1.19146       -1.40056
   C        6.48133        1.89896       -2.15441
   C        7.89000        1.74647       -1.96929
   N        9.03432        1.62570       -1.82226
   C        6.17058        2.90076       -3.23453
   C        4.77416        3.19588       -3.65927
   O        7.08893        3.50433       -3.79399
   H        1.37236       -1.87817       -0.06003
   H        2.38197       -1.44338        1.32240
   H        3.13417       -1.79520       -0.26578
   H        4.32829       -0.22529        2.10220
   H        5.28437       -1.03602        3.36504
   H        4.11171       -1.96754        2.41392
   H        4.10400        2.49629       -3.20102
   H        4.68441        3.06762       -4.74101
   H        4.50866        4.21741       -3.37579
*

