# avogadro generated ORCA input file 
# Basic Mode
# 
! wB97X-D3 OPT def2-TZVP def2/J CPCM
%cpcm
  epsilon 3
end
%pal
 nprocs 8
end 

* xyz 0 1
   C       -5.08056        4.63786        0.04878
   N       -3.63293        4.67308        0.04516
   C       -2.85070        5.83860        0.13619
   C       -3.27315        7.15640        0.32025
   C       -2.29159        8.16030        0.37174
   C       -0.92716        7.82964        0.23675
   C       -0.53310        6.49278        0.04845
   C       -1.53194        5.51273        0.00323
   N       -1.41163        4.11475       -0.18008
   C       -0.17824        3.39102       -0.42019
   C       -2.75039        3.52427       -0.13534
   C       -2.86465        2.49500        0.98525
   C       -2.24792        1.25285        0.83263
   C       -2.32872        0.27961        1.82918
   C       -3.03618        0.48718        3.05069
   N       -3.07987       -0.58427        4.06133
   C       -2.35306       -1.83026        3.72847
   C       -2.37658       -2.96564        4.76717
   C       -3.76530       -0.57598        5.37785
   C       -4.55586        0.62976        5.86152
   C       -3.65312        1.76229        3.17519
   C       -3.56942        2.73336        2.17117
   H       -5.46810        5.05320        1.00232
   H       -5.44370        3.59481       -0.06738
   H       -5.46955        5.24545       -0.79487
   H       -4.32199        7.40226        0.42118
   H       -2.58424        9.19236        0.51459
   H       -0.17850        8.61015        0.27682
   H        0.51461        6.25128       -0.05557
   H        0.69502        4.06966       -0.45796
   H       -0.24475        2.85731       -1.39101
   H        0.00316        2.66216        0.39451
   H       -2.99761        3.04653       -1.10896
   H       -1.70136        1.02452       -0.07413
   H       -1.81577       -0.64089        1.60128
   H       -2.78445       -2.25959        2.79768
   H       -1.27991       -1.58672        3.56718
   H       -3.41002       -3.32544        4.94982
   H       -1.90344       -2.65117        5.72013
   H       -1.79179       -3.82483        4.37542
   H       -3.00362       -0.74887        6.16748
   H       -4.49456       -1.41361        5.39252
   H       -3.89002        1.50630        6.00711
   H       -4.97884        0.39716        6.86245
   H       -5.42419        0.82576        5.19767
   H       -4.21428        2.09635        4.00738
   H       -4.05651        3.68150        2.34619
*

