# avogadro generated ORCA input file 
# Basic Mode
# 
! wB97X-D3 OPT def2-TZVP def2/J CPCM
%cpcm
  epsilon 3
end
%pal
 nprocs 8
end 

* xyz 0 1
   F        0.99536        0.03890       -0.07505
   C        2.35667       -0.05111       -0.08645
   C        3.00887        1.19038       -0.09421
   F        2.20612        2.29444       -0.09485
   C        4.41822        1.27629       -0.09863
   C        5.14812        0.06559       -0.07378
   F        6.51187        0.03870       -0.04784
   C        4.50467       -1.18378       -0.05596
   F        5.38069       -2.21143        0.02336
   C        3.07616       -1.29284       -0.08770
   C        2.37880       -2.50586       -0.11139
   C        2.97975       -3.91193       -0.14559
   O        2.25813       -5.06292       -0.06565
   C        0.89824       -5.20290       -0.05853
   O        4.17024       -4.07101       -0.27032
   C        0.92528       -2.43797       -0.13177
   N       -0.22977       -2.34916       -0.14725
   C        5.05738        2.49332       -0.10963
   C        4.36247        3.75813       -0.11754
   N        3.81212        4.77396       -0.12389
   C        6.49315        2.63960       -0.10784
   N        7.64187        2.76346       -0.10647
   H        0.61595       -6.25493        0.02458
   H        0.47658       -4.80580       -0.99274
   H        0.46037       -4.66493        0.79031
*

