# avogadro generated ORCA input file 
# Basic Mode
# 
! wB97X-D3 OPT def2-TZVP def2/J CPCM
%cpcm
  epsilon 3
end
%pal
 nprocs 4
end

* xyz 0 1
   N      -18.19932        1.39042       -0.00850
   C      -17.16652        0.85993       -0.00954
   N      -16.80606       -2.37390       -0.00938
   C      -16.33947       -1.31082       -0.01006
   C      -15.92746        0.08495       -0.01067
   C      -14.61455        0.61416       -0.01176
   C      -14.39560        2.01748       -0.01202
   C      -13.41030       -0.17559       -0.01259
   C      -13.09129        2.60050       -0.01266
   C      -11.89174        1.82444       -0.01308
   C      -10.53079        2.39882       -0.01333
   C       -9.59669        0.17432       -0.01409
   C       -9.33550        1.56891       -0.01364
   C       -7.98684        2.01553       -0.01285
   C       -7.44661        3.36602       -0.01327
   C       -6.80982        1.14353       -0.01532
   N       -6.85739        4.36699       -0.01280
   N       -5.83087        0.51879       -0.01298
   F      -10.37811        3.75040       -0.01306
   F      -13.02754        3.95437       -0.01277
   F      -15.45797        2.86612       -0.01157
   F      -13.53102       -1.52909       -0.01264
   F       -8.57645       -0.72178       -0.01465
   C      -12.07335        0.41901       -0.01321
   C      -10.90007       -0.37185       -0.01389
   F      -10.99259       -1.72262       -0.01429
*

