26
Coordinates from ORCA-job F6-TCNNQ E -1427.671853152078
  N     -18.199320      1.390420     -0.008500
  C     -17.166520      0.859930     -0.009540
  N     -16.806060     -2.373900     -0.009380
  C     -16.339470     -1.310820     -0.010060
  C     -15.927460      0.084950     -0.010670
  C     -14.614550      0.614160     -0.011760
  C     -14.395600      2.017480     -0.012020
  C     -13.410300     -0.175590     -0.012590
  C     -13.091290      2.600500     -0.012660
  C     -11.891740      1.824440     -0.013080
  C     -10.530790      2.398820     -0.013330
  C      -9.596690      0.174320     -0.014090
  C      -9.335500      1.568910     -0.013640
  C      -7.986840      2.015530     -0.012850
  C      -7.446610      3.366020     -0.013270
  C      -6.809820      1.143530     -0.015320
  N      -6.857390      4.366990     -0.012800
  N      -5.830870      0.518790     -0.012980
  F     -10.378110      3.750400     -0.013060
  F     -13.027540      3.954370     -0.012770
  F     -15.457970      2.866120     -0.011570
  F     -13.531020     -1.529090     -0.012640
  F      -8.576450     -0.721780     -0.014650
  C     -12.073350      0.419010     -0.013210
  C     -10.900070     -0.371850     -0.013890
  F     -10.992590     -1.722620     -0.014290
26
Coordinates from ORCA-job F6-TCNNQ E -1427.719391127502
  N     -18.080285      1.437755     -0.008680
  C     -17.057210      0.910261     -0.009697
  N     -16.601543     -2.329824     -0.009365
  C     -16.188681     -1.255089     -0.010092
  C     -15.835101      0.140849     -0.010780
  C     -14.553827      0.666352     -0.011833
  C     -14.314896      2.071058     -0.011995
  C     -13.373368     -0.148120     -0.012687
  C     -13.049486      2.607535     -0.012531
  C     -11.875558      1.796188     -0.012983
  C     -10.570055      2.317474     -0.013196
  C      -9.647146      0.087447     -0.014076
  C      -9.391269      1.489465     -0.013602
  C      -8.094123      1.981455     -0.012900
  C      -7.678277      3.359412     -0.013421
  C      -6.895294      1.171380     -0.015057
  N      -7.194315      4.404252     -0.013088
  N      -5.896127      0.599945     -0.012733
  F     -10.394015      3.637043     -0.012889
  F     -12.949475      3.937449     -0.012523
  F     -15.348004      2.921371     -0.011476
  F     -13.539912     -1.468805     -0.012813
  F      -8.636217     -0.788639     -0.014700
  C     -12.075651      0.382973     -0.013221
  C     -10.912927     -0.435509     -0.013913
  F     -11.021159     -1.764639     -0.014370
26
Coordinates from ORCA-job F6-TCNNQ E -1427.731601239478
  N     -17.975164      1.508391     -0.008293
  C     -16.963933      0.966574     -0.009460
  N     -16.424905     -2.302454     -0.009582
  C     -16.066115     -1.212530     -0.010188
  C     -15.764967      0.185923     -0.010717
  C     -14.508459      0.708122     -0.011909
  C     -14.255459      2.121690     -0.011991
  C     -13.331330     -0.129404     -0.012703
  C     -13.021492      2.624104     -0.012489
  C     -11.856637      1.778291     -0.012936
  C     -10.605019      2.253806     -0.013086
  C      -9.674588      0.006687     -0.014411
  C      -9.426922      1.420787     -0.013760
  C      -8.177244      1.952095     -0.013455
  C      -7.888705      3.352775     -0.013824
  C      -6.969706      1.183436     -0.014194
  N      -7.524115      4.440950     -0.013452
  N      -5.956967      0.644545     -0.011107
  F     -10.393099      3.549615     -0.012841
  F     -12.883968      3.933784     -0.012465
  F     -15.279746      2.957616     -0.011451
  F     -13.540586     -1.424949     -0.012825
  F      -8.651317     -0.831584     -0.015346
  C     -12.075975      0.347950     -0.013227
  C     -10.911614     -0.498554     -0.014125
  F     -11.045887     -1.808623     -0.014784
26
Coordinates from ORCA-job F6-TCNNQ E -1427.732617374126
  N     -17.991025      1.506760     -0.007138
  C     -16.981678      0.960244     -0.008783
  N     -16.440961     -2.316494     -0.008703
  C     -16.085626     -1.224870     -0.009657
  C     -15.785006      0.174707     -0.010576
  C     -14.525974      0.699781     -0.012242
  C     -14.274120      2.116934     -0.012149
  C     -13.339984     -0.134135     -0.013383
  C     -13.034577      2.626750     -0.012819
  C     -11.861629      1.785179     -0.013636
  C     -10.598479      2.269395     -0.013853
  C      -9.664606      0.018727     -0.014627
  C      -9.412047      1.435296     -0.014043
  C      -8.152531      1.959224     -0.013830
  C      -7.845479      3.357546     -0.014140
  C      -6.957371      1.170887     -0.012831
  N      -7.471163      4.442856     -0.013680
  N      -5.952976      0.615440     -0.008426
  F     -10.387815      3.568900     -0.013127
  F     -12.896759      3.937656     -0.012343
  F     -15.304998      2.946760     -0.010955
  F     -13.549406     -1.433312     -0.013878
  F      -8.636107     -0.814204     -0.015708
  C     -12.077317      0.351217     -0.013885
  C     -10.905006     -0.490664     -0.014682
  F     -11.041282     -1.801538     -0.015526
26
Coordinates from ORCA-job F6-TCNNQ E -1427.732777746067
  N     -17.990857      1.516950     -0.010074
  C     -16.984163      0.965018     -0.010625
  N     -16.438192     -2.320250     -0.009701
  C     -16.089470     -1.226268     -0.010383
  C     -15.790825      0.173934     -0.011099
  C     -14.530713      0.699017     -0.011766
  C     -14.275118      2.118591     -0.011519
  C     -13.339944     -0.135432     -0.012335
  C     -13.034355      2.627386     -0.011442
  C     -11.859457      1.784300     -0.011964
  C     -10.596741      2.267668     -0.012017
  C      -9.661754      0.013926     -0.013981
  C      -9.405915      1.433194     -0.013261
  C      -8.146611      1.960305     -0.014086
  C      -7.849574      3.360887     -0.015496
  C      -6.951871      1.171249     -0.014059
  N      -7.492035      4.452032     -0.016078
  N      -5.947030      0.615996     -0.010710
  F     -10.382187      3.567747     -0.011849
  F     -12.889176      3.937560     -0.010968
  F     -15.307383      2.946962     -0.010952
  F     -13.553211     -1.435423     -0.013180
  F      -8.630475     -0.815526     -0.015942
  C     -12.077502      0.348435     -0.012466
  C     -10.902548     -0.494510     -0.013622
  F     -11.046812     -1.804708     -0.015047
26
Coordinates from ORCA-job F6-TCNNQ E -1427.732803977161
  N     -17.989713      1.520215     -0.007817
  C     -16.984158      0.966156     -0.009265
  N     -16.432421     -2.322792     -0.008332
  C     -16.089055     -1.227102     -0.009518
  C     -15.791747      0.173292     -0.010771
  C     -14.532032      0.698619     -0.012246
  C     -14.275170      2.118824     -0.012020
  C     -13.339208     -0.135055     -0.013498
  C     -13.035188      2.627193     -0.012582
  C     -11.859173      1.784586     -0.013732
  C     -10.597644      2.268084     -0.014000
  C      -9.661453      0.014406     -0.014744
  C      -9.404625      1.434393     -0.013978
  C      -8.145227      1.960534     -0.013624
  C      -7.848145      3.361066     -0.014704
  C      -6.952872      1.167827     -0.012342
  N      -7.497824      4.454575     -0.014979
  N      -5.949445      0.609956     -0.008118
  F     -10.383346      3.568400     -0.012039
  F     -12.887995      3.937189     -0.011565
  F     -15.307763      2.947125     -0.010550
  F     -13.553493     -1.435326     -0.013709
  F      -8.628737     -0.813730     -0.015708
  C     -12.077691      0.348504     -0.013979
  C     -10.901474     -0.493921     -0.014969
  F     -11.048323     -1.803980     -0.015831
26
Coordinates from ORCA-job F6-TCNNQ E -1427.732810715157
  N     -17.988847      1.522586     -0.009530
  C     -16.984055      0.967187     -0.010317
  N     -16.430141     -2.323508     -0.009675
  C     -16.089914     -1.226860     -0.010360
  C     -15.792082      0.173366     -0.011061
  C     -14.532444      0.698310     -0.011831
  C     -14.274734      2.118410     -0.011514
  C     -13.339141     -0.134934     -0.012476
  C     -13.034924      2.626492     -0.011483
  C     -11.858624      1.784230     -0.012188
  C     -10.597215      2.267606     -0.012186
  C      -9.661544      0.014259     -0.013932
  C      -9.403895      1.434348     -0.013206
  C      -8.144666      1.960231     -0.013800
  C      -7.848237      3.360771     -0.015301
  C      -6.952193      1.167287     -0.013431
  N      -7.504657      4.456388     -0.016058
  N      -5.948511      0.609908     -0.010179
  F     -10.382612      3.567929     -0.013211
  F     -12.887508      3.936614     -0.010913
  F     -15.306962      2.947535     -0.010635
  F     -13.553650     -1.435280     -0.013406
  F      -8.629191     -0.814675     -0.015951
  C     -12.077751      0.348466     -0.012717
  C     -10.901393     -0.493745     -0.013784
  F     -11.049028     -1.803885     -0.015477
26
Coordinates from ORCA-job F6-TCNNQ E -1427.732813466055
  N     -17.988202      1.524137     -0.007727
  C     -16.984025      0.967696     -0.009047
  N     -16.427546     -2.324262     -0.008051
  C     -16.090914     -1.226541     -0.009188
  C     -15.792204      0.173445     -0.010384
  C     -14.532577      0.698031     -0.012001
  C     -14.274428      2.117831     -0.012048
  C     -13.339243     -0.134780     -0.013252
  C     -13.034635      2.625887     -0.012944
  C     -11.858315      1.784061     -0.014095
  C     -10.596994      2.267544     -0.014684
  C      -9.661766      0.014828     -0.015193
  C      -9.403711      1.434766     -0.014372
  C      -8.144280      1.959780     -0.013465
  C      -7.846676      3.359980     -0.014127
  C      -6.952034      1.166189     -0.011797
  N      -7.509670      4.457592     -0.014185
  N      -5.948221      0.609113     -0.007707
  F     -10.382968      3.567873     -0.012327
  F     -12.887846      3.936217     -0.012098
  F     -15.306084      2.947938     -0.010637
  F     -13.553404     -1.435130     -0.013412
  F      -8.630034     -0.815159     -0.016129
  C     -12.077846      0.348685     -0.014065
  C     -10.901555     -0.493189     -0.015337
  F     -11.048743     -1.803495     -0.016345
26
Coordinates from ORCA-job F6-TCNNQ E -1427.732816362062
  N     -17.988186      1.523926     -0.009788
  C     -16.984019      0.967472     -0.010467
  N     -16.426431     -2.324510     -0.008813
  C     -16.091013     -1.226426     -0.009862
  C     -15.792068      0.173507     -0.011024
  C     -14.532371      0.698092     -0.011894
  C     -14.274541      2.117767     -0.011766
  C     -13.339352     -0.134752     -0.012494
  C     -13.034666      2.626033     -0.011767
  C     -11.858502      1.784261     -0.012295
  C     -10.597091      2.267919     -0.012295
  C      -9.661878      0.015329     -0.014346
  C      -9.404090      1.435080     -0.013443
  C      -8.144319      1.959496     -0.013689
  C      -7.845286      3.359420     -0.014687
  C      -6.952480      1.165391     -0.013326
  N      -7.509608      4.457427     -0.015148
  N      -5.948725      0.608210     -0.010512
  F     -10.383644      3.568239     -0.012814
  F     -12.888601      3.936395     -0.011304
  F     -15.306052      2.947937     -0.010968
  F     -13.553045     -1.435051     -0.012837
  F      -8.630324     -0.814785     -0.016503
  C     -12.077896      0.348875     -0.012827
  C     -10.901746     -0.492938     -0.014080
  F     -11.047986     -1.803275     -0.015670
