4
Coordinates from ORCA-job BF3 E -324.590382416438
  B      -2.268210      2.044000     -0.000000
  F      -3.441270      2.886500      0.000000
  F      -0.952060      2.638660     -0.000000
  F      -2.411300      0.606860     -0.000000
4
Coordinates from ORCA-job BF3 E -324.625474634152
  B      -2.268229      2.044072     -0.000073
  F      -3.366902      2.832959      0.000024
  F      -1.035470      2.600885      0.000024
  F      -2.402240      0.698104      0.000024
4
Coordinates from ORCA-job BF3 E -324.628518351070
  B      -2.268117      2.044052     -0.000084
  F      -3.323521      2.801888      0.000028
  F      -1.084394      2.578717      0.000028
  F      -2.396808      0.751362      0.000028
4
Coordinates from ORCA-job BF3 E -324.629327416782
  B      -2.268256      2.044069     -0.000058
  F      -3.338057      2.812310      0.000019
  F      -1.067870      2.586233      0.000019
  F      -2.398657      0.733407      0.000019
4
Coordinates from ORCA-job BF3 E -324.629336505192
  B      -2.268323      2.044075     -0.000080
  F      -3.336642      2.811313      0.000027
  F      -1.069393      2.585552      0.000027
  F      -2.398482      0.735080      0.000027
4
Coordinates from ORCA-job BF3 E -324.629336530748
  B      -2.268363      2.044077     -0.000054
  F      -3.336568      2.811284      0.000018
  F      -1.069471      2.585500      0.000018
  F      -2.398438      0.735159      0.000018
