2
Coordinates from ORCA-job O2 E -150.275316249941
  O       0.881300     -0.012300     -0.071900
  O       2.163300     -0.012300     -0.071900
2
Coordinates from ORCA-job O2 E -150.285725774014
  O       0.920698     -0.012300     -0.071900
  O       2.123902     -0.012300     -0.071900
2
Coordinates from ORCA-job O2 E -150.285891061358
  O       0.928323     -0.012300     -0.071900
  O       2.116277     -0.012300     -0.071900
2
Coordinates from ORCA-job O2 E -150.285918243683
  O       0.926278     -0.012300     -0.071900
  O       2.118322     -0.012300     -0.071900
2
Coordinates from ORCA-job O2 E -150.285918173921
  O       0.926352     -0.012300     -0.071900
  O       2.118248     -0.012300     -0.071900
