65
	Energy:     134.9736180
C         -2.02032        3.91879       -1.65185
C         -1.64516        3.53464       -0.21433
H         -1.96464        3.01967       -2.30151
H         -1.35716        4.69152       -2.08448
H         -3.06111        4.30527       -1.67252
C         -1.29207        0.65313        0.16981
C         -0.05171        1.54789        0.05596
H         -1.88919        0.91353        1.06933
H         -0.96921       -0.40348        0.28404
H         -1.91257        0.72203       -0.74910
N         -0.26885        3.00108       -0.14139
H         -2.41408        2.80842        0.09349
H         -1.77952        4.37237        0.50252
H          0.52337        1.15355       -0.81123
H          0.53255        1.38996        0.98973
C          0.78008        3.80763       -0.24961
C          0.63840        5.22087       -0.39290
C          2.11599        3.30773       -0.20761
C          1.72958        6.08504       -0.50892
H         -0.32218        5.70921       -0.41026
C          3.04038        5.59668       -0.49457
H          1.52645        7.14225       -0.60730
C          3.22446        4.14627       -0.31900
H          2.33995        2.25822       -0.08586
C          4.19426        6.40953       -0.60863
O          4.44337        3.63774       -0.25487
C          5.46788        5.78098       -0.52063
C          5.54079        4.37838       -0.34151
C          6.78144        3.73661       -0.25935
C          6.67468        6.49553       -0.63624
C          7.90743        5.84636       -0.55323
C          7.99835        4.45159       -0.34503
N          9.28372        3.77648       -0.27293
C          9.36985        2.32281       -0.10659
C         10.53977        4.51862       -0.41361
C          9.01420        1.90441        1.32405
H          9.10525        0.80194        1.41972
H          7.98844        2.19364        1.61954
H          9.72099        2.37883        2.03718
H         10.40545        1.95584       -0.27190
H          8.74042        1.80989       -0.86433
C         10.84479        5.33970        0.84376
H         10.93740        4.66124        1.71800
H         10.06315        6.08711        1.07514
H         11.80843        5.87496        0.71041
H         10.51693        5.14510       -1.33036
H         11.40538        3.83265       -0.53463
C          4.07005        7.89127       -0.77591
C          3.43113        8.51368       -1.89336
C          4.59606        8.70005        0.25050
C          3.33520        9.92199       -1.91438
C          4.49040       10.08783        0.19796
H          5.08032        8.24875        1.10847
C          3.85763       10.69700       -0.87976
H          2.86255       10.43497       -2.74272
H          3.77603       11.77572       -0.91797
H          4.89615       10.69220        0.99901
C          2.89398        7.75688       -3.06869
O          2.31219        8.35276       -3.96443
O          3.07827        6.42581       -3.19110
H          2.74429        5.93424       -3.95482
H          6.68808        7.56290       -0.80391
H          8.78285        6.46516       -0.66753
H          6.76265        2.66524       -0.13720
Cl        -0.89785        7.88298       -2.64040
