# avogadro generated ORCA input file 
# Basic Mode
# 
! wB97X-D3 OPT def2-TZVP def2/J CPCM
%cpcm
  epsilon 3
end
%pal
 nprocs 4
end 

* xyz -1 1
   C        2.47644        0.29365       -0.84427
   C        2.18733        0.05388        0.64068
   N        2.87202       -1.15439        1.12517
   C        2.12495       -2.37274        1.48743
   C        0.60007       -2.31988        1.34792
   C        4.31912       -1.16191        1.27295
   C        5.09130        0.00980        1.09904
   C        6.47863        0.00039        1.24996
   C        7.16514       -1.17924        1.59356
   C        6.40848       -2.36315        1.76341
   C        5.01765       -2.34525        1.61192
   O        6.99360       -3.51621        2.05900
   C        8.30146       -3.64349        2.20814
   C        9.17768       -2.47059        2.05548
   C        8.57980       -1.22339        1.75319
   C        9.42109        0.00266        1.57413
   C        9.30473        1.17779        2.38761
   C       10.13357        2.28142        2.07816
   C       11.04327        2.23215        1.02226
   C       11.15675        1.08493        0.24810
   C       10.35527       -0.01862        0.52047
   C        8.37570        1.25650        3.57293
   O        7.79403        0.25808        3.96313
   O        8.17224        2.39960        4.26916
   C       10.54920       -2.66116        2.24921
   C       11.06600       -3.92240        2.55685
   C       10.24850       -5.09036        2.70095
   N       10.76282       -6.28643        2.99337
   C       12.24038       -6.37239        3.16708
   C       12.94764       -7.68392        3.50251
   C        8.84400       -4.89042        2.51508
  Cl        6.06633       -7.96340        2.30669
   H        1.94352        1.20707       -1.18299
   H        2.11024       -0.57061       -1.43816
   H        3.55493        0.42469       -1.05520
   H        1.08904       -0.00547        0.71851
   H        2.46753        0.92866        1.26384
   H        2.46690       -3.20647        0.83674
   H        2.34392       -2.62500        2.54814
   H        0.30897       -2.11820        0.29494
   H        0.16795       -1.55501        2.02753
   H        0.17309       -3.30356        1.63705
   H        4.64383        0.95901        0.84970
   H        7.00144        0.93274        1.09187
   H        4.50258       -3.28282        1.76025
   H       10.11227        3.19527        2.64873
   H       11.66961        3.08890        0.80836
   H       11.86548        1.05129       -0.56934
   H       10.45276       -0.89679       -0.10704
   H        8.54883        3.25930        4.05096
   H       11.24742       -1.83949        2.17255
   H       12.13803       -3.93918        2.67890
   H       12.53148       -5.68480        3.99292
   H       12.71963       -6.03589        2.22017
   H       12.65564       -8.06856        4.49674
   H       14.03708       -7.47789        3.57751
   H       12.84789       -8.42708        2.69048
   H        8.12093       -5.68621        2.60272
   C        9.81282       -7.42795        3.11859
   C       10.27691       -8.84546        3.44693
   H        9.27227       -7.53399        2.15111
   H        9.08415       -7.18440        3.92438
   H       10.91482       -9.26706        2.64881
   H        9.38031       -9.50124        3.48117
   H       10.72369       -8.91132        4.45573
*

