26
Coordinates from ORCA-job DQ E -573.965661829432
  C       2.695810      6.930990      0.688650
  C       1.384580      7.294400      0.957310
  C       3.024400      5.591610      0.493580
  H       3.463320      7.691970      0.625350
  C       0.410640      6.307090      1.052540
  H       1.126960      8.334040      1.113630
  C       2.018060      4.592130      0.551610
  H       4.057250      5.387470      0.267420
  N       0.728190      4.989810      0.864620
  H      -0.600020      6.603590      1.308070
  C       2.278950      3.259420      0.317270
  C      -0.311970      3.984030      1.128690
  C      -0.159180      2.863400      0.142450
  H      -1.337510      4.415190      1.104050
  H      -0.139610      3.554240      2.140190
  N       1.224410      2.368040      0.202040
  H      -0.338160      3.291790     -0.868490
  H      -0.907660      2.058640      0.316740
  C       3.596430      2.749320      0.179260
  C       1.435450      1.028330      0.023110
  C       3.805230      1.384710     -0.005700
  H       4.482710      3.357600      0.243520
  C       2.724810      0.517640     -0.072600
  H       0.601490      0.343370     -0.076810
  H       4.812580      0.997500     -0.092140
  H       2.883770     -0.542770     -0.220590
26
Coordinates from ORCA-job DQ E -573.984120940334
  C       2.691055      6.931080      0.699616
  C       1.343432      7.295145      0.963156
  C       3.027939      5.624117      0.509809
  H       3.457160      7.694737      0.638868
  C       0.402444      6.317836      1.050834
  H       1.062773      8.328665      1.112991
  C       2.032478      4.594287      0.555491
  H       4.062790      5.413442      0.288570
  N       0.722648      5.004945      0.871043
  H      -0.618761      6.579428      1.291688
  C       2.292365      3.263264      0.310542
  C      -0.281083      3.992142      1.135168
  C      -0.128596      2.868481      0.129381
  H      -1.280174      4.424573      1.100437
  H      -0.120493      3.577521      2.140828
  N       1.224627      2.351767      0.196426
  H      -0.308930      3.278197     -0.874803
  H      -0.851890      2.073815      0.307991
  C       3.610058      2.720693      0.160131
  C       1.432757      1.015094      0.027905
  C       3.799196      1.382404     -0.015634
  H       4.494771      3.335830      0.217275
  C       2.687138      0.499994     -0.069249
  H       0.577684      0.357925     -0.053855
  H       4.805563      0.992254     -0.105087
  H       2.823978     -0.564088     -0.205752
26
Coordinates from ORCA-job DQ E -573.989142343102
  C       2.698653      6.925752      0.717171
  C       1.326906      7.302613      0.963660
  C       3.028233      5.637980      0.534268
  H       3.469575      7.685532      0.667236
  C       0.405234      6.331233      1.041446
  H       1.035753      8.333951      1.101487
  C       2.034143      4.588192      0.560294
  H       4.062761      5.397196      0.330805
  N       0.715249      5.013745      0.873944
  H      -0.630303      6.559315      1.258489
  C       2.290862      3.269646      0.304031
  C      -0.265577      3.993380      1.140659
  C      -0.114051      2.874063      0.118181
  H      -1.258535      4.432083      1.093254
  H      -0.118251      3.578424      2.144101
  N       1.221346      2.340603      0.194846
  H      -0.302504      3.278778     -0.882401
  H      -0.828376      2.077036      0.305689
  C       3.611969      2.707723      0.132206
  C       1.442431      1.003885      0.040638
  C       3.801152      1.389676     -0.033270
  H       4.481434      3.350055      0.168498
  C       2.675438      0.486036     -0.062258
  H       0.564896      0.372229     -0.011989
  H       4.808438      1.004619     -0.134805
  H       2.804054     -0.580194     -0.182408
26
Coordinates from ORCA-job DQ E -573.989767085994
  C       2.705140      6.927711      0.733577
  C       1.327152      7.310614      0.961106
  C       3.031009      5.638299      0.554603
  H       3.478399      7.685900      0.697534
  C       0.406666      6.335787      1.031704
  H       1.034304      8.342558      1.087798
  C       2.034092      4.584995      0.565066
  H       4.064471      5.378971      0.369237
  N       0.713662      5.014794      0.873380
  H      -0.636479      6.549329      1.230193
  C       2.288882      3.272526      0.298099
  C      -0.265518      3.992357      1.140819
  C      -0.113645      2.875584      0.115176
  H      -1.259843      4.432511      1.085444
  H      -0.126141      3.575201      2.144767
  N       1.220647      2.338885      0.196020
  H      -0.307107      3.279576     -0.885062
  H      -0.828336      2.077320      0.308333
  C       3.611337      2.708146      0.109380
  C       1.447326      1.000180      0.053715
  C       3.805243      1.389854     -0.050168
  H       4.469265      3.366790      0.124605
  C       2.679644      0.478491     -0.055780
  H       0.560107      0.379284      0.023331
  H       4.811674      1.006634     -0.166556
  H       2.808980     -0.588745     -0.162552
26
Coordinates from ORCA-job DQ E -573.989951576139
  C       2.708378      6.928772      0.748696
  C       1.328042      7.313954      0.955932
  C       3.034093      5.637526      0.573658
  H       3.482125      7.686874      0.729542
  C       0.407436      6.336563      1.021774
  H       1.034462      8.346758      1.071405
  C       2.035486      4.583674      0.569308
  H       4.067524      5.365892      0.408865
  N       0.715108      5.014094      0.873407
  H      -0.640666      6.540191      1.206028
  C       2.289068      3.274277      0.292672
  C      -0.266288      3.992097      1.139558
  C      -0.113512      2.876035      0.114243
  H      -1.261710      4.432091      1.077949
  H      -0.132923      3.574495      2.144260
  N       1.221887      2.339952      0.196207
  H      -0.309931      3.278617     -0.886133
  H      -0.829187      2.077965      0.311464
  C       3.610797      2.709693      0.088099
  C       1.450167      0.999798      0.066640
  C       3.806202      1.389665     -0.065524
  H       4.460273      3.378723      0.080775
  C       2.682963      0.475795     -0.047645
  H       0.556926      0.386334      0.053593
  H       4.810164      1.005911     -0.199438
  H       2.814046     -0.592193     -0.141564
26
Coordinates from ORCA-job DQ E -573.990012320767
  C       2.709358      6.927662      0.757879
  C       1.328405      7.313456      0.950275
  C       3.036421      5.636012      0.586799
  H       3.482973      7.686099      0.750897
  C       0.407249      6.335985      1.015239
  H       1.034819      8.347158      1.057216
  C       2.036767      4.583341      0.572187
  H       4.070704      5.358820      0.437789
  N       0.716914      5.013009      0.875373
  H      -0.642809      6.536159      1.192127
  C       2.289748      3.275069      0.289271
  C      -0.266715      3.992149      1.139061
  C      -0.113449      2.876051      0.114006
  H      -1.262174      4.432047      1.074848
  H      -0.136185      3.574479      2.144099
  N       1.222888      2.341496      0.194315
  H      -0.311258      3.277965     -0.886366
  H      -0.829233      2.078280      0.312701
  C       3.610270      2.711670      0.073977
  C       1.450943      1.000381      0.074510
  C       3.805161      1.390798     -0.074830
  H       4.455867      3.385182      0.050466
  C       2.684174      0.476636     -0.041086
  H       0.555860      0.389462      0.070076
  H       4.807060      1.006036     -0.221007
  H       2.817173     -0.591852     -0.126051
26
Coordinates from ORCA-job DQ E -573.990063316997
  C       2.709651      6.925891      0.766883
  C       1.327851      7.311747      0.942238
  C       3.039233      5.634248      0.601438
  H       3.482735      7.684970      0.772618
  C       0.406172      6.334896      1.008086
  H       1.034063      8.346462      1.038952
  C       2.038543      4.583157      0.575734
  H       4.074954      5.353819      0.470111
  N       0.719298      5.011409      0.880137
  H      -0.645184      6.533700      1.178111
  C       2.290817      3.275868      0.285458
  C      -0.266224      3.991579      1.140045
  C      -0.113259      2.876786      0.113132
  H      -1.261272      4.431908      1.075511
  H      -0.137183      3.572279      2.144553
  N       1.223697      2.343640      0.189548
  H      -0.312603      3.279945     -0.886402
  H      -0.828645      2.078859      0.311634
  C       3.609847      2.713923      0.059081
  C       1.450729      1.001229      0.081965
  C       3.803220      1.392275     -0.083923
  H       4.452856      3.389879      0.018468
  C       2.684348      0.478424     -0.033445
  H       0.555136      0.391233      0.084867
  H       4.802766      1.006036     -0.242461
  H       2.819386     -0.590613     -0.108567
26
Coordinates from ORCA-job DQ E -573.990098542071
  C       2.709779      6.924139      0.772871
  C       1.326797      7.310015      0.934231
  C       3.041545      5.632474      0.613268
  H       3.482401      7.683664      0.787123
  C       0.404871      6.333789      1.002482
  H       1.032480      8.345472      1.021735
  C       2.039862      4.582724      0.579325
  H       4.078709      5.351201      0.495557
  N       0.721193      5.009789      0.886722
  H      -0.647096      6.533245      1.167427
  C       2.291313      3.276632      0.282159
  C      -0.264968      3.990043      1.142862
  C      -0.113326      2.878444      0.111495
  H      -1.259516      4.431295      1.080865
  H      -0.135423      3.567069      2.145688
  N       1.223683      2.345581      0.183002
  H      -0.314189      3.285333     -0.886149
  H      -0.828098      2.079725      0.307839
  C       3.609386      2.715944      0.048056
  C       1.449917      1.002082      0.086388
  C       3.801584      1.393767     -0.090171
  H       4.451439      3.392412     -0.004221
  C       2.683864      0.480082     -0.027483
  H       0.554902      0.391458      0.094042
  H       4.799545      1.006543     -0.256561
  H       2.820273     -0.589370     -0.094781
26
Coordinates from ORCA-job DQ E -573.990126738025
  C       2.709892      6.922488      0.777016
  C       1.325287      7.308398      0.925264
  C       3.043548      5.630567      0.624187
  H       3.482152      7.682311      0.796944
  C       0.403510      6.332428      0.997369
  H       1.029894      8.344360      1.002976
  C       2.040872      4.581883      0.583842
  H       4.082152      5.349840      0.517834
  N       0.722945      5.007942      0.895836
  H      -0.648861      6.533672      1.157107
  C       2.291201      3.277470      0.278980
  C      -0.262797      3.987286      1.147918
  C      -0.113646      2.881316      0.109077
  H      -1.256949      4.429730      1.091463
  H      -0.130735      3.558133      2.147691
  N       1.222991      2.347616      0.174299
  H      -0.316125      3.294890     -0.885383
  H      -0.827888      2.081270      0.301146
  C       3.608754      2.717816      0.039408
  C       1.448733      1.003241      0.088604
  C       3.800243      1.395204     -0.094813
  H       4.450759      3.393827     -0.020755
  C       2.682940      0.481521     -0.022709
  H       0.554808      0.391169      0.099773
  H       4.797218      1.007459     -0.266061
  H       2.820031     -0.588286     -0.083241
26
Coordinates from ORCA-job DQ E -573.990132903364
  C       2.709732      6.922059      0.777262
  C       1.323977      7.307876      0.919825
  C       3.044186      5.629764      0.628683
  H       3.481892      7.681965      0.797418
  C       0.402857      6.331442      0.995218
  H       1.027323      8.343852      0.992060
  C       2.041225      4.581159      0.587024
  H       4.083528      5.350331      0.525743
  N       0.723893      5.006803      0.902698
  H      -0.649700      6.534042      1.152223
  C       2.290713      3.277925      0.277536
  C      -0.260678      3.984760      1.152589
  C      -0.113926      2.883945      0.107291
  H      -1.254881      4.427741      1.101896
  H      -0.125174      3.550269      2.149531
  N       1.222189      2.348818      0.168107
  H      -0.317106      3.303634     -0.884396
  H      -0.828241      2.082937      0.295198
  C       3.608350      2.718306      0.037603
  C       1.447830      1.004228      0.087433
  C       3.799834      1.395515     -0.095501
  H       4.451074      3.393448     -0.022766
  C       2.682021      0.481840     -0.021649
  H       0.554531      0.391170      0.099005
  H       4.796902      1.007863     -0.266322
  H       2.818579     -0.588142     -0.079938
26
Coordinates from ORCA-job DQ E -573.990133702915
  C       2.709350      6.922548      0.775597
  C       1.323246      7.308192      0.918294
  C       3.043889      5.630002      0.628274
  H       3.481526      7.682454      0.793459
  C       0.402813      6.331074      0.995289
  H       1.025702      8.343951      0.989393
  C       2.041266      4.580894      0.588164
  H       4.083315      5.351442      0.523728
  N       0.724209      5.006503      0.905456
  H      -0.649813      6.533843      1.152029
  C       2.290411      3.277983      0.277499
  C      -0.259391      3.983506      1.155034
  C      -0.113965      2.885279      0.106689
  H      -1.253920      4.426276      1.107815
  H      -0.121342      3.546640      2.150577
  N       1.221827      2.349153      0.165925
  H      -0.316951      3.307984     -0.883754
  H      -0.828761      2.084051      0.292293
  C       3.608268      2.717743      0.039808
  C       1.447465      1.004717      0.085100
  C       3.799963      1.394955     -0.094028
  H       4.451644      3.392344     -0.017085
  C       2.681470      0.481419     -0.022914
  H       0.554093      0.391648      0.095422
  H       4.797553      1.007549     -0.262143
  H       2.817062     -0.588599     -0.082149
26
Coordinates from ORCA-job DQ E -573.990134414999
  C       2.709037      6.922903      0.774932
  C       1.322863      7.308411      0.917251
  C       3.043737      5.630244      0.628424
  H       3.481164      7.682863      0.791984
  C       0.402803      6.330886      0.994996
  H       1.024822      8.344062      0.987561
  C       2.041441      4.580831      0.588772
  H       4.083155      5.351763      0.523697
  N       0.724501      5.006394      0.906601
  H      -0.649972      6.533232      1.151477
  C       2.290427      3.277990      0.277588
  C      -0.258692      3.983015      1.156201
  C      -0.113878      2.885843      0.106708
  H      -1.253477      4.425446      1.110647
  H      -0.119266      3.545247      2.151165
  N       1.221820      2.349339      0.165311
  H      -0.316609      3.309809     -0.883256
  H      -0.829073      2.084690      0.291314
  C       3.608262      2.717309      0.040802
  C       1.447335      1.005002      0.084013
  C       3.799956      1.394522     -0.093521
  H       4.451740      3.391908     -0.014656
  C       2.681217      0.481182     -0.023733
  H       0.553637      0.392360      0.093703
  H       4.797728      1.007149     -0.260559
  H       2.816251     -0.588851     -0.083652
