# avogadro generated ORCA input file 
# Basic Mode
# 
! wB97X-D3 OPT def2-TZVP def2/J CPCM
%cpcm
  epsilon 3
end
%pal
 nprocs 4
end

* xyz 0 1
   C        0.53925        1.74892        0.02139
   N        1.79177        1.00473        0.02703
   H        0.47360        2.38932        0.92648
   H       -0.34354        1.07239        0.02696
   H        0.47338        2.37486       -0.89376
   C        1.66463       -0.44882        0.03918
   H        1.10282       -0.77810       -0.86084
   H        1.10255       -0.76280        0.94451
   H        2.61205       -1.00334        0.04451
   C        3.06055        1.71029        0.02064
   C        3.08784        3.12854        0.01211
   C        4.31174        1.03899        0.02223
   C        4.28997        3.83877        0.00580
   H        2.18013        3.71387        0.01026
   C        5.50835        3.15875        0.00757
   H        4.26426        4.92220       -0.00054
   C        5.51761        1.75156        0.01574
   H        4.40116       -0.03210        0.02808
   C        6.72632        3.85088        0.00125
   N        6.70293        1.08248        0.01721
   C        7.93219        3.13786        0.00296
   H        6.73558        4.93552       -0.00505
   C        7.89904        1.73200        0.01103
   C        9.16178        3.79655       -0.00327
   C        9.09226        1.00059        0.01264
   C       10.35346        3.06815       -0.00163
   H        9.20458        4.87951       -0.00950
   C       10.36116        1.64540        0.00629
   H       11.26086        3.65199       -0.00688
   H        8.99555       -0.07480        0.01893
   N       11.60983        0.88572        0.00773
   C       11.48095       -0.59045        0.01430
   C       12.86092        1.68017        0.00231
   C       12.70962       -1.49671        0.01373
   H       10.90264       -0.88753       -0.88823
   H       10.90758       -0.88025        0.92232
   H       13.30203       -1.38502       -0.91301
   H       12.36106       -2.55170        0.01857
   H       13.30816       -1.37877        0.93565
   C       14.23208        1.00883        0.00550
   H       12.85661        2.33117        0.90426
   H       12.85517        2.32171       -0.90636
   H       14.40558        0.43286        0.93307
   H       15.00657        1.80559        0.00106
   H       14.40555        0.42288       -0.91571
*

