# avogadro generated ORCA input file 
# Basic Mode
# 
! wB97X-D3 OPT def2-TZVP def2/J CPCM
%cpcm
  epsilon 3
end
%pal
 nprocs 4
end

* xyz 0 1
   C        3.71140        3.24849        0.90570
   C        3.98181        1.89175        0.71824
   C        2.42144        3.73773        0.69364
   H        4.50070        3.91993        1.21818
   C        2.96477        1.02055        0.31514
   H        4.98153        1.51302        0.88797
   C        1.40072        2.87152        0.29127
   H        2.21127        4.78913        0.84173
   C        1.65747        1.50356        0.09127
   H        3.21276       -0.02349        0.19114
   H        0.40553        3.26893        0.13234
   C        0.50129        0.61990       -0.34037
   N        0.88262       -0.77647       -0.61349
   H        0.03629        1.03952       -1.25955
   H       -0.26214        0.66981        0.46769
   C        1.69554       -1.06467       -1.66868
   C        0.40350       -1.78339        0.16823
   C        2.06171       -2.38065       -1.95715
   H        2.07077       -0.26720       -2.30034
   C        0.74446       -3.11406       -0.08412
   H       -0.25046       -1.56634        1.00495
   C        1.59671       -3.46789       -1.16676
   H        2.70835       -2.49092       -2.80874
   H        0.31367       -3.82525        0.59720
   C        1.94823       -4.78149       -1.43418
   C        2.79881       -5.13515       -2.51791
   C        1.48175       -5.86927       -0.64503
   C        3.14076       -6.46539       -2.76817
   H        3.22586       -4.42483       -3.20245
   C        1.84920       -7.18588       -0.93162
   H        0.83112       -5.75892        0.20354
   N        2.67431       -7.47193       -1.97656
   H        3.78933       -6.68937       -3.60778
   H        1.46565       -7.97936       -0.30062
   C        3.04021       -8.86790       -2.27191
   C        4.51477       -9.17401       -2.08249
   H        2.74682       -9.08962       -3.32165
   H        2.47810       -9.57035       -1.61701
   C        5.44352       -8.24242       -1.57063
   C        4.96839      -10.46070       -2.42291
   C        6.31367      -10.80734       -2.26746
   H        4.27679      -11.19776       -2.81280
   C        6.78806       -8.59507       -1.41668
   H        5.14545       -7.24587       -1.27919
   C        7.22316       -9.87480       -1.76595
   H        6.65059      -11.80038       -2.53558
   H        7.49366       -7.87466       -1.02319
   H        8.26434      -10.14463       -1.64510
*

