48
Coordinates from ORCA-job BV E -1037.300995159786
  C       3.711400      3.248490      0.905700
  C       3.981810      1.891750      0.718240
  C       2.421440      3.737730      0.693640
  H       4.500700      3.919930      1.218180
  C       2.964770      1.020550      0.315140
  H       4.981530      1.513020      0.887970
  C       1.400720      2.871520      0.291270
  H       2.211270      4.789130      0.841730
  C       1.657470      1.503560      0.091270
  H       3.212760     -0.023490      0.191140
  H       0.405530      3.268930      0.132340
  C       0.501290      0.619900     -0.340370
  N       0.882620     -0.776470     -0.613490
  H       0.036290      1.039520     -1.259550
  H      -0.262140      0.669810      0.467690
  C       1.695540     -1.064670     -1.668680
  C       0.403500     -1.783390      0.168230
  C       2.061710     -2.380650     -1.957150
  H       2.070770     -0.267200     -2.300340
  C       0.744460     -3.114060     -0.084120
  H      -0.250460     -1.566340      1.004950
  C       1.596710     -3.467890     -1.166760
  H       2.708350     -2.490920     -2.808740
  H       0.313670     -3.825250      0.597200
  C       1.948230     -4.781490     -1.434180
  C       2.798810     -5.135150     -2.517910
  C       1.481750     -5.869270     -0.645030
  C       3.140760     -6.465390     -2.768170
  H       3.225860     -4.424830     -3.202450
  C       1.849200     -7.185880     -0.931620
  H       0.831120     -5.758920      0.203540
  N       2.674310     -7.471930     -1.976560
  H       3.789330     -6.689370     -3.607780
  H       1.465650     -7.979360     -0.300620
  C       3.040210     -8.867900     -2.271910
  C       4.514770     -9.174010     -2.082490
  H       2.746820     -9.089620     -3.321650
  H       2.478100     -9.570350     -1.617010
  C       5.443520     -8.242420     -1.570630
  C       4.968390    -10.460700     -2.422910
  C       6.313670    -10.807340     -2.267460
  H       4.276790    -11.197760     -2.812800
  C       6.788060     -8.595070     -1.416680
  H       5.145450     -7.245870     -1.279190
  C       7.223160     -9.874800     -1.765950
  H       6.650590    -11.800380     -2.535580
  H       7.493660     -7.874660     -1.023190
  H       8.264340    -10.144630     -1.645100
48
Coordinates from ORCA-job BV E -1037.320955309503
  C       3.682319      3.256827      0.911435
  C       3.954402      1.906658      0.738135
  C       2.398880      3.733819      0.678264
  H       4.465638      3.934208      1.229391
  C       2.950799      1.034382      0.329848
  H       4.952307      1.528521      0.923357
  C       1.397500      2.862915      0.270086
  H       2.177908      4.785633      0.815007
  C       1.661544      1.505285      0.087297
  H       3.193903     -0.014327      0.213507
  H       0.399603      3.249454      0.091733
  C       0.519039      0.607375     -0.345738
  N       0.894978     -0.772723     -0.609049
  H       0.052093      1.018434     -1.248389
  H      -0.235426      0.628066      0.443623
  C       1.683245     -1.073906     -1.689660
  C       0.445517     -1.790698      0.189889
  C       2.044465     -2.351665     -1.977080
  H       2.022478     -0.267012     -2.323984
  C       0.775333     -3.087453     -0.050524
  H      -0.183270     -1.550994      1.035590
  C       1.612803     -3.464197     -1.164971
  H       2.668216     -2.464453     -2.851007
  H       0.366251     -3.800944      0.648641
  C       1.965283     -4.773250     -1.433478
  C       2.800802     -5.148691     -2.548835
  C       1.525511     -5.888283     -0.627857
  C       3.133138     -6.443929     -2.789586
  H       3.204635     -4.435180     -3.251058
  C       1.887042     -7.166203     -0.917696
  H       0.890722     -5.777671      0.238356
  N       2.694426     -7.462883     -1.983542
  H       3.757472     -6.686837     -3.638019
  H       1.535222     -7.972398     -0.290116
  C       3.055786     -8.838546     -2.287460
  C       4.522440     -9.169816     -2.090260
  H       2.766884     -9.052583     -3.322868
  H       2.477496     -9.509343     -1.648399
  C       5.440849     -8.272321     -1.548040
  C       4.961564    -10.444308     -2.449900
  C       6.289376    -10.813596     -2.280250
  H       4.261835    -11.159739     -2.868473
  C       6.771137     -8.642129     -1.377574
  H       5.137800     -7.278944     -1.242168
  C       7.198807     -9.910952     -1.744447
  H       6.614830    -11.806614     -2.565939
  H       7.475361     -7.936097     -0.954785
  H       8.235317    -10.196481     -1.610848
48
Coordinates from ORCA-job BV E -1037.326648423476
  C       3.683372      3.249478      0.932080
  C       3.941721      1.896892      0.786090
  C       2.411602      3.733812      0.659509
  H       4.466707      3.923857      1.257082
  C       2.939434      1.030934      0.369284
  H       4.930488      1.507704      0.999132
  C       1.415996      2.868022      0.242030
  H       2.195780      4.790010      0.772760
  C       1.669396      1.508687      0.091412
  H       3.162309     -0.025195      0.269951
  H       0.424722      3.256908      0.029381
  C       0.531299      0.606997     -0.347167
  N       0.898704     -0.764171     -0.609585
  H       0.061063      1.026450     -1.240398
  H      -0.225526      0.604905      0.435755
  C       1.639461     -1.084674     -1.728163
  C       0.500953     -1.794096      0.214055
  C       1.993781     -2.340343     -2.022035
  H       1.927785     -0.263022     -2.370145
  C       0.820690     -3.071734     -0.023455
  H      -0.086462     -1.524274      1.081273
  C       1.616393     -3.470636     -1.180189
  H       2.572928     -2.468845     -2.926460
  H       0.454423     -3.793238      0.694259
  C       1.964024     -4.765342     -1.449565
  C       2.759504     -5.163813     -2.605508
  C       1.572575     -5.898293     -0.616293
  C       3.087226     -6.439343     -2.839172
  H       3.118333     -4.443288     -3.328007
  C       1.931313     -7.153730     -0.909036
  H       0.972083     -5.772686      0.274537
  N       2.699121     -7.469673     -2.007598
  H       3.676967     -6.710244     -3.704692
  H       1.630466     -7.975796     -0.274126
  C       3.064338     -8.832493     -2.312709
  C       4.526881     -9.170456     -2.095406
  H       2.788828     -9.052625     -3.347046
  H       2.464919     -9.486872     -1.681361
  C       5.418390     -8.289179     -1.506717
  C       4.980566    -10.427856     -2.480473
  C       6.299829    -10.797274     -2.282806
  H       4.291667    -11.130138     -2.939775
  C       6.743255     -8.655543     -1.308487
  H       5.089118     -7.306745     -1.188573
  C       7.189174     -9.908292     -1.695553
  H       6.635916    -11.781454     -2.588124
  H       7.429494     -7.954465     -0.847829
  H       8.223253    -10.192419     -1.539977
48
Coordinates from ORCA-job BV E -1037.327899601413
  C       3.704452      3.229058      0.932319
  C       3.936095      1.867319      0.832825
  C       2.449197      3.732750      0.615146
  H       4.495390      3.896269      1.253263
  C       2.923592      1.010433      0.419716
  H       4.911401      1.463026      1.077672
  C       1.443923      2.876854      0.200740
  H       2.254872      4.796533      0.689465
  C       1.670391      1.507341      0.099565
  H       3.120411     -0.053417      0.351109
  H       0.466942      3.278729     -0.050543
  C       0.526717      0.612615     -0.338250
  N       0.888370     -0.757062     -0.606069
  H       0.055133      1.041268     -1.227153
  H      -0.232130      0.606149      0.445206
  C       1.582372     -1.086081     -1.754916
  C       0.542909     -1.788111      0.243145
  C       1.937024     -2.341289     -2.055114
  H       1.827969     -0.257791     -2.407415
  C       0.862661     -3.066290      0.002204
  H      -0.006573     -1.502120      1.130776
  C       1.611480     -3.473948     -1.187723
  H       2.472988     -2.483107     -2.983678
  H       0.538376     -3.792573      0.734859
  C       1.957684     -4.762141     -1.461372
  C       2.708434     -5.167378     -2.649778
  C       1.614517     -5.899405     -0.605370
  C       3.037813     -6.442790     -2.887910
  H       3.024373     -4.441032     -3.386204
  C       1.973218     -7.154116     -0.906414
  H       1.049700     -5.763347      0.306773
  N       2.695414     -7.476509     -2.036379
  H       3.595778     -6.726864     -3.770990
  H       1.715040     -7.984457     -0.262124
  C       3.068840     -8.834851     -2.343448
  C       4.528199     -9.169379     -2.099396
  H       2.814783     -9.053224     -3.384204
  H       2.453394     -9.492486     -1.728014
  C       5.387968     -8.303798     -1.442668
  C       5.011920    -10.402037     -2.528482
  C       6.328911    -10.763326     -2.302852
  H       4.347176    -11.088710     -3.043693
  C       6.711267     -8.662324     -1.217009
  H       5.029667     -7.341205     -1.096313
  C       7.186604     -9.890779     -1.645009
  H       6.688723    -11.727660     -2.642436
  H       7.372137     -7.973311     -0.703851
  H       8.218739    -10.169014     -1.467845
48
Coordinates from ORCA-job BV E -1037.328387712229
  C       3.765662      3.163254      0.898271
  C       3.950828      1.790912      0.854664
  C       2.531863      3.698826      0.546240
  H       4.576746      3.814776      1.200059
  C       2.912261      0.954118      0.463323
  H       4.909321      1.362783      1.123862
  C       1.499872      2.863776      0.153338
  H       2.376353      4.771108      0.573768
  C       1.678993      1.482948      0.110118
  H       3.068844     -0.117980      0.429929
  H       0.541508      3.288233     -0.129701
  C       0.515366      0.606129     -0.309778
  N       0.861260     -0.764065     -0.593894
  H       0.035175      1.047453     -1.188424
  H      -0.235544      0.602321      0.484169
  C       1.505299     -1.093285     -1.771851
  C       0.575299     -1.793204      0.280096
  C       1.861481     -2.347778     -2.081393
  H       1.708969     -0.258592     -2.431568
  C       0.897211     -3.071363      0.030382
  H       0.068218     -1.496781      1.189920
  C       1.590759     -3.480212     -1.193283
  H       2.353356     -2.499176     -3.031778
  H       0.621660     -3.803137      0.776663
  C       1.937185     -4.764298     -1.476860
  C       2.641276     -5.167308     -2.695466
  C       1.644915     -5.903608     -0.603219
  C       2.973417     -6.441897     -2.944414
  H       2.916071     -4.433223     -3.439750
  C       2.001927     -7.157876     -0.917405
  H       1.118379     -5.760704      0.329854
  N       2.673178     -7.478051     -2.079600
  H       3.502801     -6.732108     -3.843542
  H       1.785335     -7.996292     -0.267122
  C       3.069561     -8.829467     -2.386967
  C       4.526334     -9.143362     -2.103003
  H       2.850740     -9.040933     -3.437346
  H       2.440480     -9.502430     -1.798709
  C       5.329395     -8.293389     -1.355983
  C       5.067243    -10.333607     -2.584196
  C       6.383334    -10.670795     -2.315660
  H       4.449337    -11.001699     -3.176240
  C       6.651106     -8.629291     -1.086544
  H       4.923044     -7.362402     -0.977782
  C       7.181640     -9.817454     -1.562436
  H       6.789433    -11.600518     -2.696737
  H       7.265602     -7.955471     -0.500687
  H       8.211770    -10.078470     -1.351162
48
Coordinates from ORCA-job BV E -1037.328519996691
  C       3.781355      3.129192      0.887010
  C       3.939761      1.752548      0.881041
  C       2.564349      3.680526      0.502732
  H       4.601097      3.771983      1.183981
  C       2.890114      0.927376      0.495283
  H       4.885344      1.312623      1.175487
  C       1.520444      2.856987      0.115459
  H       2.431347      4.756179      0.500162
  C       1.672180      1.472031      0.110329
  H       3.024010     -0.148162      0.488481
  H       0.575137      3.292589     -0.192906
  C       0.498576      0.603516     -0.299500
  N       0.837334     -0.766788     -0.595394
  H       0.011771      1.050861     -1.171493
  H      -0.246160      0.599598      0.500755
  C       1.456831     -1.091812     -1.787029
  C       0.597575     -1.791218      0.297043
  C       1.824212     -2.343485     -2.097580
  H       1.629244     -0.256544     -2.454939
  C       0.934450     -3.065940      0.047088
  H       0.114978     -1.492477      1.219366
  C       1.595019     -3.472208     -1.194329
  H       2.291954     -2.497837     -3.059365
  H       0.697210     -3.798540      0.805490
  C       1.947936     -4.754905     -1.481160
  C       2.618178     -5.157105     -2.718158
  C       1.692703     -5.890057     -0.592393
  C       2.945562     -6.432034     -2.975025
  H       2.865509     -4.421605     -3.470433
  C       2.041892     -7.144960     -0.914460
  H       1.194994     -5.742198      0.355383
  N       2.668642     -7.465809     -2.100641
  H       3.448563     -6.726073     -3.887939
  H       1.848797     -7.984448     -0.257919
  C       3.073259     -8.815800     -2.406172
  C       4.527273     -9.130969     -2.106638
  H       2.868253     -9.021004     -3.460293
  H       2.435805     -9.493889     -1.832062
  C       5.309741     -8.303897     -1.311319
  C       5.084868    -10.301067     -2.617466
  C       6.395577    -10.643513     -2.328377
  H       4.484060    -10.948853     -3.248206
  C       6.626061     -8.644958     -1.022407
  H       4.891299     -7.386005     -0.915184
  C       7.171460     -9.815338     -1.525792
  H       6.814745    -11.557961     -2.731527
  H       7.224100     -7.990777     -0.398538
  H       8.196850    -10.081365     -1.298286
48
Coordinates from ORCA-job BV E -1037.328671912357
  C       3.804004      3.066174      0.911279
  C       3.925824      1.685770      0.936411
  C       2.614862      3.641591      0.480584
  H       4.631927      3.692961      1.219698
  C       2.865959      0.881903      0.536276
  H       4.850253      1.227443      1.267651
  C       1.559813      2.838627      0.079326
  H       2.512183      4.720226      0.452418
  C       1.673883      1.450867      0.106288
  H       2.970509     -0.196812      0.553249
  H       0.635494      3.292551     -0.264029
  C       0.487666      0.601840     -0.308793
  N       0.808180     -0.770721     -0.618137
  H       0.004940      1.061582     -1.176110
  H      -0.256199      0.600781      0.491930
  C       1.411094     -1.093847     -1.818028
  C       0.609660     -1.786741      0.292950
  C       1.787644     -2.343484     -2.125845
  H       1.558968     -0.262026     -2.495826
  C       0.962030     -3.057700      0.047356
  H       0.148771     -1.485508      1.225303
  C       1.591831     -3.465235     -1.207857
  H       2.238698     -2.500706     -3.095152
  H       0.760332     -3.785977      0.820166
  C       1.949122     -4.749024     -1.493620
  C       2.583431     -5.157133     -2.746392
  C       1.731728     -5.873671     -0.584088
  C       2.902572     -6.433877     -3.005054
  H       2.808172     -4.425649     -3.509834
  C       2.071482     -7.130500     -0.906692
  H       1.269943     -5.717088      0.380212
  N       2.649207     -7.459303     -2.115008
  H       3.378036     -6.734563     -3.930253
  H       1.905127     -7.964151     -0.235700
  C       3.069296     -8.808573     -2.404736
  C       4.525207     -9.109758     -2.100557
  H       2.868419     -9.023432     -3.457243
  H       2.435946     -9.487807     -1.827688
  C       5.298553     -8.273376     -1.305265
  C       5.093747    -10.276411     -2.605719
  C       6.405457    -10.609038     -2.308703
  H       4.499568    -10.931440     -3.235188
  C       6.616088     -8.602988     -1.010966
  H       4.873800     -7.354096     -0.919092
  C       7.171501     -9.772189     -1.506966
  H       6.833038    -11.522279     -2.705581
  H       7.208580     -7.940847     -0.390281
  H       8.197914    -10.029956     -1.274529
48
Coordinates from ORCA-job BV E -1037.328746573351
  C       3.790702      3.058289      0.920517
  C       3.904593      1.677355      0.962252
  C       2.611481      3.635118      0.467586
  H       4.618288      3.683879      1.232434
  C       2.845653      0.875543      0.557787
  H       4.822520      1.218125      1.310003
  C       1.557098      2.833420      0.061699
  H       2.516021      4.713972      0.424666
  C       1.662330      1.446268      0.106540
  H       2.945228     -0.203563      0.586752
  H       0.640039      3.288630     -0.299046
  C       0.475653      0.598785     -0.310403
  N       0.792037     -0.773199     -0.627843
  H      -0.009665      1.061494     -1.173974
  H      -0.265812      0.593484      0.492135
  C       1.395352     -1.091662     -1.828514
  C       0.629224     -1.783530      0.296712
  C       1.790583     -2.336402     -2.131058
  H       1.524333     -0.263254     -2.514097
  C       1.000906     -3.049378      0.056295
  H       0.175483     -1.484909      1.233255
  C       1.616075     -3.455478     -1.206048
  H       2.238173     -2.490541     -3.102655
  H       0.821427     -3.773951      0.838177
  C       1.976441     -4.739108     -1.493234
  C       2.590547     -5.148545     -2.755210
  C       1.776141     -5.860600     -0.576553
  C       2.896441     -6.426704     -3.020546
  H       2.807804     -4.418552     -3.522522
  C       2.099845     -7.119160     -0.906500
  H       1.337738     -5.702826      0.398439
  N       2.645066     -7.451191     -2.129332
  H       3.352552     -6.728365     -3.954974
  H       1.943262     -7.950287     -0.230208
  C       3.066863     -8.800729     -2.415789
  C       4.519833     -9.107793     -2.104944
  H       2.870534     -9.013459     -3.469336
  H       2.429249     -9.478740     -1.842816
  C       5.297961     -8.271107     -1.315063
  C       5.079662    -10.283075     -2.597968
  C       6.387939    -10.624095     -2.295589
  H       4.481382    -10.938654     -3.223060
  C       6.611010     -8.609955     -1.013264
  H       4.880296     -7.345821     -0.935250
  C       7.158201     -9.787755     -1.498259
  H       6.808967    -11.544038     -2.683993
  H       7.207385     -7.948763     -0.395275
  H       8.181421    -10.052764     -1.259767
48
Coordinates from ORCA-job BV E -1037.328796016146
  C       3.793797      3.042192      0.918117
  C       3.903297      1.660651      0.958178
  C       2.615603      3.622958      0.468783
  H       4.624261      3.664701      1.228635
  C       2.840917      0.862791      0.556111
  H       4.821080      1.198569      1.302546
  C       1.557789      2.824613      0.064984
  H       2.523405      4.702139      0.426550
  C       1.658236      1.437656      0.108946
  H       2.938849     -0.216700      0.583733
  H       0.641456      3.283269     -0.293354
  C       0.467284      0.595568     -0.305853
  N       0.774108     -0.776533     -0.631974
  H      -0.021676      1.063616     -1.164074
  H      -0.268832      0.587862      0.501441
  C       1.384857     -1.091007     -1.830116
  C       0.631362     -1.785355      0.298397
  C       1.792888     -2.331845     -2.130075
  H       1.508634     -0.263717     -2.517978
  C       1.015410     -3.047706      0.060853
  H       0.180420     -1.490202      1.237335
  C       1.625011     -3.452282     -1.205064
  H       2.246330     -2.480083     -3.100015
  H       0.848674     -3.769293      0.848488
  C       1.986278     -4.734829     -1.494988
  C       2.594858     -5.142439     -2.760469
  C       1.792074     -5.858033     -0.578415
  C       2.892129     -6.420854     -3.032214
  H       2.816043     -4.411722     -3.526093
  C       2.106893     -7.116669     -0.915345
  H       1.367242     -5.703448      0.403181
  N       2.636941     -7.448513     -2.145592
  H       3.342061     -6.719369     -3.970625
  H       1.955387     -7.947153     -0.237175
  C       3.065482     -8.795926     -2.431173
  C       4.515855     -9.101231     -2.108096
  H       2.878563     -9.005917     -3.486825
  H       2.425018     -9.476376     -1.864708
  C       5.295479     -8.252113     -1.334172
  C       5.071604    -10.288700     -2.575192
  C       6.377898    -10.628810     -2.263946
  H       4.471912    -10.954644     -3.187988
  C       6.606376     -8.590062     -1.022748
  H       4.881284     -7.318268     -0.971511
  C       7.150083     -9.779445     -1.482484
  H       6.795784    -11.558089     -2.633179
  H       7.204091     -7.919411     -0.416313
  H       8.171765    -10.043431     -1.236363
48
Coordinates from ORCA-job BV E -1037.328817947716
  C       3.786113      3.044349      0.908383
  C       3.899744      1.662853      0.940798
  C       2.602261      3.623811      0.472118
  H       4.617499      3.667555      1.214971
  C       2.836378      0.863639      0.543903
  H       4.821878      1.201984      1.274992
  C       1.543566      2.824027      0.073386
  H       2.506104      4.702855      0.436057
  C       1.648407      1.437174      0.109491
  H       2.938698     -0.215621      0.566430
  H       0.623103      3.281942     -0.275263
  C       0.456639      0.594993     -0.301695
  N       0.761409     -0.776846     -0.630637
  H      -0.035737      1.064090     -1.157472
  H      -0.275915      0.585271      0.508931
  C       1.386450     -1.087636     -1.822741
  C       0.629965     -1.785627      0.302280
  C       1.807336     -2.324956     -2.119225
  H       1.509993     -0.260192     -2.510589
  C       1.026079     -3.045055      0.068620
  H       0.175447     -1.493550      1.240527
  C       1.639500     -3.447921     -1.196651
  H       2.270309     -2.467917     -3.085470
  H       0.865241     -3.764986      0.859083
  C       2.002217     -4.728638     -1.488657
  C       2.614078     -5.132609     -2.754095
  C       1.806235     -5.856263     -0.576873
  C       2.903908     -6.411159     -3.032819
  H       2.843407     -4.399552     -3.515023
  C       2.114435     -7.114671     -0.921297
  H       1.384800     -5.706463      0.407030
  N       2.638879     -7.444211     -2.155027
  H       3.354258     -6.705511     -3.972440
  H       1.960411     -7.947125     -0.245991
  C       3.066328     -8.790498     -2.446535
  C       4.512666     -9.103808     -2.112628
  H       2.888548     -8.990856     -3.505597
  H       2.418681     -9.473475     -1.891201
  C       5.299205     -8.250736     -1.350708
  C       5.058118    -10.303289     -2.561574
  C       6.361310    -10.650070     -2.245698
  H       4.453063    -10.972783     -3.165209
  C       6.607161     -8.596017     -1.033521
  H       4.893543     -7.308650     -0.999916
  C       7.140982     -9.796103     -1.476204
  H       6.770918    -11.588043     -2.602041
  H       7.210229     -7.922288     -0.435841
  H       8.160415    -10.065010     -1.226201
48
Coordinates from ORCA-job BV E -1037.328819736317
  C       3.792716      3.036908      0.896765
  C       3.906205      1.655321      0.921698
  C       2.604502      3.618728      0.474856
  H       4.627298      3.658390      1.198045
  C       2.838813      0.857909      0.531240
  H       4.831352      1.192637      1.244854
  C       1.541902      2.821030      0.082493
  H       2.507941      4.697912      0.445056
  C       1.646916      1.433690      0.110664
  H       2.941193     -0.221382      0.548245
  H       0.618318      3.280826     -0.255235
  C       0.451612      0.593981     -0.295304
  N       0.752961     -0.778087     -0.626568
  H      -0.043534      1.064793     -1.148728
  H      -0.277484      0.584860      0.518586
  C       1.382154     -1.086703     -1.817378
  C       0.626051     -1.788033      0.305975
  C       1.806774     -2.322658     -2.114573
  H       1.506192     -0.257648     -2.503308
  C       1.025351     -3.046496      0.071621
  H       0.172278     -1.496981      1.244997
  C       1.638648     -3.447819     -1.194447
  H       2.273240     -2.463258     -3.079437
  H       0.868739     -3.767057      0.862411
  C       2.001697     -4.727287     -1.488665
  C       2.615898     -5.128267     -2.754072
  C       1.806241     -5.857680     -0.579850
  C       2.905639     -6.406280     -3.035849
  H       2.848441     -4.392916     -3.511677
  C       2.114238     -7.115417     -0.927707
  H       1.385865     -5.709898      0.404877
  N       2.638432     -7.442495     -2.162210
  H       3.359202     -6.698151     -3.974773
  H       1.960900     -7.949835     -0.254534
  C       3.068178     -8.787054     -2.457649
  C       4.512194     -9.101152     -2.113908
  H       2.899535     -8.980534     -3.519540
  H       2.416260     -9.474177     -1.912182
  C       5.296397     -8.245215     -1.352915
  C       5.058403    -10.303713     -2.554852
  C       6.360112    -10.649759     -2.232597
  H       4.455255    -10.975655     -3.157651
  C       6.603094     -8.590251     -1.028899
  H       4.890104     -7.301357     -1.007776
  C       7.137741     -9.792539     -1.464076
  H       6.770208    -11.589702     -2.583100
  H       7.204019     -7.914234     -0.431656
  H       8.156068    -10.060882     -1.209108
48
Coordinates from ORCA-job BV E -1037.328817755598
  C       3.791635      3.036858      0.891400
  C       3.907306      1.655486      0.909342
  C       2.599668      3.618853      0.479773
  H       4.627190      3.658186      1.190255
  C       2.838638      0.858018      0.521766
  H       4.834989      1.192536      1.224717
  C       1.535894      2.821447      0.090258
  H       2.501048      4.697991      0.455995
  C       1.643331      1.433845      0.110951
  H       2.942636     -0.221108      0.533693
  H       0.609495      3.281439     -0.239336
  C       0.447117      0.594204     -0.292937
  N       0.748604     -0.777875     -0.624497
  H      -0.049030      1.065006     -1.145951
  H      -0.281024      0.585518      0.521884
  C       1.380636     -1.084646     -1.814485
  C       0.624227     -1.788261      0.307828
  C       1.808119     -2.319658     -2.111888
  H       1.504299     -0.254455     -2.499149
  C       1.026549     -3.045849      0.073227
  H       0.170341     -1.497755      1.247012
  C       1.640596     -3.445743     -1.192852
  H       2.276497     -2.459267     -3.075903
  H       0.872768     -3.767298      0.863760
  C       2.004911     -4.724525     -1.487883
  C       2.620725     -5.123697     -2.753021
  C       1.810246     -5.855955     -0.580357
  C       2.910769     -6.401473     -3.036218
  H       2.854256     -4.386998     -3.508949
  C       2.118757     -7.113367     -0.929489
  H       1.389365     -5.708532      0.404210
  N       2.642771     -7.438951     -2.164246
  H       3.366071     -6.692374     -3.974622
  H       1.965411     -7.949060     -0.257808
  C       3.070634     -8.783340     -2.463254
  C       4.512547     -9.102470     -2.114448
  H       2.907240     -8.970549     -3.527124
  H       2.414255     -9.472319     -1.925326
  C       5.299328     -8.246742     -1.355785
  C       5.054567    -10.309179     -2.550102
  C       6.354552    -10.658916     -2.225298
  H       4.449307    -10.981347     -3.150481
  C       6.604682     -8.595671     -1.029368
  H       4.896482     -7.299977     -1.014818
  C       7.135019     -9.801528     -1.459498
  H       6.761189    -11.601877     -2.571669
  H       7.207495     -7.919457     -0.434272
  H       8.152152    -10.072760     -1.202879
