# avogadro generated ORCA input file 
# Basic Mode
# 
! wB97X-D3 OPT def2-TZVP def2/J CPCM
%cpcm
  epsilon 3
end
%pal
 nprocs 4
end
 

* xyz 0 1
   C       -5.24222        2.69585        0.00513
   C       -3.73766        2.65359       -0.07384
   C       -3.06900        3.82049        0.08709
   C       -1.59662        3.83743        0.01187
   C       -0.84796        4.95592        0.18628
   C        0.60281        4.91394        0.15874
   N        1.75943        4.86144        0.13352
   C       -1.45897        6.23872        0.41553
   N       -1.95599        7.26627        0.59928
   C       -0.96233        2.53683       -0.17982
   C       -1.68012        1.40227       -0.29448
   C       -0.81077        0.21123       -0.02400
   C       -0.27715       -1.01732       -0.25352
   C       -0.10892       -2.19554       -1.08822
   C        1.07951       -2.22825       -1.82545
   C        1.65787       -3.43341       -2.20506
   C        1.06704       -4.67326       -1.85774
   N        1.64105       -5.93463       -2.29044
   C        2.78245       -6.01450       -3.19818
   C        0.99417       -7.21564       -2.03618
   C       -0.12564       -4.61468       -1.08201
   C       -0.69272       -3.39780       -0.69864
   O       -3.05711        1.46191       -0.29594
   H       -5.61474        3.73396        0.18380
   H       -5.62298        2.06629        0.83641
   H       -5.65637        2.35351       -0.96075
   H       -3.60322        4.74694        0.28390
   H        0.12023        2.47612       -0.12211
   H       -0.29109        0.53397        0.87286
   H        0.41936       -1.23692        0.54813
   H        1.62796       -1.31578       -2.02842
   H        2.59454       -3.33365       -2.72398
   H        3.35003       -5.08648       -3.34073
   H        2.41440       -6.32799       -4.19620
   H        3.52414       -6.75329       -2.82684
   H        0.19945       -7.20454       -1.28130
   H        1.73298       -7.95541       -1.66322
   H        0.54694       -7.57424       -2.98505
   H       -0.63424       -5.47773       -0.69827
   H       -1.53564       -3.40306       -0.02004
*

