# avogadro generated ORCA input file 
# Basic Mode
# 
! RHF SP def2-SVP 

* xyz 0 1
   C       13.94763        3.44994        1.39846
   C       15.03957        2.57948        1.16890
   C       16.26286        3.19633        1.44761
   C       16.14734        4.47297        1.87085
   S       14.55746        4.95574        1.93950
   C       17.43394        5.03930        2.14122
   H       14.97017        1.55886        0.82297
   C       18.38793        4.05540        1.86645
   C       17.71288        2.77165        1.39107
   C       17.98616        1.60695        2.35177
   H       17.67896        1.87402        3.38622
   H       19.06876        1.35731        2.36026
   H       17.41751        0.70528        2.03803
   C       18.13076        2.41599       -0.04174
   H       17.92770        3.26530       -0.72963
   H       17.56483        1.52972       -0.40095
   H       19.21634        2.18297       -0.08232
   C       17.76544        6.31520        2.59560
   C       19.12711        6.58332        2.77224
   C       20.09504        5.60727        2.50007
   C       19.75876        4.32372        2.04226
   H       17.00659        7.05856        2.80177
   C       19.76040        7.87458        3.25276
   C       21.20939        7.48042        3.20971
   C       21.37783        6.20704        2.78470
   C       19.47181        9.03464        2.28973
   H       19.79539        8.77562        1.25808
   H       20.01715        9.94829        2.60984
   H       18.38441        9.26136        2.26993
   C       19.32058        8.21866        4.68258
   H       18.23000        8.42829        4.71326
   H       19.86304        9.11655        5.04886
   H       19.53524        7.37291        5.37153
   C       22.38599        8.15386        3.51289
   C       23.52597        7.34818        3.30660
   S       23.00344        5.80896        2.74738
   H       22.36204        9.17233        3.85735
   C       24.96080        7.73505        3.51992
   C       25.36508        9.00220        3.99579
   C       26.74986        9.31811        4.17211
   C       27.75731        8.37550        3.87613
   C       25.97993        6.80439        3.23404
   C       27.33761        7.11459        3.40607
   H       25.73691        5.81650        2.86658
   H       28.05434        6.34552        3.16018
   N       24.50362       10.00087        4.31691
   N       27.00272       10.57090        4.63383
   S       25.49903       11.22032        4.80073
   H       20.51569        3.57852        1.83644
   C       10.09227        3.72479        1.27745
   N        9.21263        4.72172        1.55028
   S       10.18574        5.97233        1.99936
   N       11.70044        5.33828        1.87588
   C       11.47093        4.06559        1.45797
   C       12.49508        3.12497        1.21216
   C       12.09834        1.84369        0.78131
   H       12.82833        1.07527        0.57530
   C       10.74732        1.50970        0.60540
   H       10.52353        0.50463        0.27442
   C        9.71150        2.43516        0.84804
   C        8.28472        2.01477        0.64718
   S        7.80573        0.44597        0.14048
   C        6.17274        0.79893        0.17765
   C        5.96210        2.07721        0.56266
   C        4.49506        2.41420        0.60411
   C        4.05203        2.78692        2.02560
   H        4.30536        1.97338        2.73968
   H        4.56093        3.71711        2.35811
   H        2.95418        2.95396        2.05863
   C        4.15342        3.53033       -0.39243
   H        3.05766        3.71282       -0.40986
   H        4.66429        4.47463       -0.10588
   H        4.47961        3.25155       -1.41800
   C        3.90797        1.08123        0.17023
   C        2.55648        0.74102        0.01122
   H        1.76389        1.45361        0.19797
   C        2.28394       -0.56711       -0.39990
   C        3.29065       -1.50783       -0.64729
   C        4.64378       -1.16713       -0.48870
   H        5.43622       -1.88004       -0.67435
   C        2.69708       -2.84123       -1.07805
   C        3.13438       -3.21700       -2.50008
   H        4.23173       -3.38654       -2.53628
   H        2.62167       -4.14617       -2.82944
   H        2.88073       -2.40354       -3.21418
   C        3.03899       -3.95586       -0.08032
   H        2.52445       -4.89924       -0.36311
   H        4.13435       -4.14091       -0.06598
   H        2.71689       -3.67369        0.94567
   C        1.22965       -2.50103       -1.03193
   C        0.05742       -3.20613       -1.29290
   H        0.02435       -4.23980       -1.60947
   C       -1.07226       -2.40413       -1.09224
   H       -2.09381       -2.73063       -1.23161
   S       -0.60403       -0.84039       -0.59675
   C        1.02631       -1.21811       -0.64842
   C        4.91690        0.14214       -0.07659
   C        7.12209        2.79574        0.83573
   H        7.07432        3.82298        1.15204
   C       34.50440       11.74043        5.23103
   C       35.19837       13.01441        5.68561
   C       34.85913       13.34975        7.14437
   H       35.09981       12.49131        7.80850
   H       35.44317       14.23171        7.48462
   H       33.77738       13.58102        7.24780
   C       34.87272       14.19232        4.75703
   H       33.79133       14.44144        4.81112
   H       35.45703       15.09037        5.05168
   H       35.12282       13.94015        3.70358
   C       36.63651       12.59136        5.54347
   C       37.85596       13.22614        5.76800
   H       37.90192       14.24169        6.12232
   C       38.94913       12.38266        5.47205
   C       40.40845       12.70588        5.57992
   C       41.36103       11.71884        5.23033
   H       41.04971       10.74095        4.89001
   C       42.74026       11.96432        5.30873
   H       43.43965       11.18563        5.03283
   C       43.22214       13.20158        5.73806
   H       44.28802       13.38307        5.79543
   C       42.31359       14.19322        6.08914
   N       42.69483       15.42267        6.51589
   S       41.24644       16.16707        6.78306
   N       40.13506       15.01071        6.38557
   C       40.90764       13.95807        6.01452
   S       38.34034       10.86798        4.94144
   C       36.74080       11.31883        5.09762
   C       35.43438       10.75113        4.89022
   C       35.05443        9.48071        4.43785
   H       35.78749        8.72862        4.17777
   C       33.67484        9.23564        4.33457
   C       32.96518        7.96843        3.87237
   C       33.31167        7.63343        2.41553
   H       34.39132        7.38929        2.32007
   H       32.71944        6.75975        2.06818
   H       33.08676        8.49682        1.75230
   C       33.26931        6.78455        4.79982
   H       32.67627        5.89459        4.49826
   H       34.34819        6.52322        4.75369
   H       33.01383        7.03742        5.85180
   C       31.52724        8.40889        4.00185
   C       31.44361        9.67893        4.45527
   S       29.85998       10.17182        4.59227
   C       29.21643        8.68233        4.03988
   C       30.29039        7.80809        3.75619
   H       30.20054        6.79719        3.38747
   C       32.75041       10.22828        4.67446
   C       33.12824       11.49475        5.12901
   H       32.39448       12.24768        5.38509
*

