38
Coordinates from ORCA-job tdae E -614.477427002552
  C      -1.239490      1.882740      0.000640
  C       0.146890      1.885900     -0.000640
  N      -1.997170      3.101270      0.178140
  N      -1.991430      0.660490     -0.175520
  N       0.899090      3.117260     -0.092080
  N       0.904310      0.657680      0.089470
  C      -1.631840      4.099560      1.171530
  H      -0.712640      3.822810      1.726750
  H      -2.446560      4.185220      1.921330
  H      -1.506770      5.093260      0.696860
  C      -3.236160      3.318480     -0.550050
  H      -3.434580      2.506490     -1.280390
  H      -3.166610      4.266990     -1.123270
  H      -4.089750      3.387170      0.157190
  C       0.529070      4.181220     -1.012920
  H      -0.389010      3.940060     -1.586290
  H       1.343220      4.322980     -1.754790
  H       0.399690      5.138550     -0.469620
  C       2.137290      3.288320      0.649630
  H       2.339510      2.427950      1.321160
  H       2.063660      4.193910      1.288040
  H       2.990380      3.410310     -0.050990
  C       2.140970      0.491010     -0.655750
  H       2.337780      1.351800     -1.328370
  H       2.069010     -0.415280     -1.293360
  H       2.996600      0.372810      0.042420
  C       0.541060     -0.406970      1.012220
  H      -0.376360     -0.168880      1.587950
  H       1.357840     -0.544890      1.751920
  H       0.413840     -1.365270      0.470160
  C      -1.623500     -0.335260     -1.170520
  H      -0.707200     -0.053330     -1.727950
  H      -2.439720     -0.424650     -1.918260
  H      -1.491960     -1.328610     -0.696910
  C      -3.227300      0.436490      0.555860
  H      -3.427910      1.247130      1.287120
  H      -3.151260     -0.511930      1.128400
  H      -4.082430      0.363710     -0.149100
38
Coordinates from ORCA-job tdae E -614.495471713433
  C      -1.230131      1.882731      0.000649
  C       0.136835      1.885851     -0.000608
  N      -1.993737      3.058182      0.222499
  N      -1.988372      0.703585     -0.219909
  N       0.895536      3.077171     -0.139570
  N       0.900762      0.697745      0.137005
  C      -1.687012      3.989092      1.280757
  H      -0.793922      3.685397      1.831765
  H      -2.520773      4.023642      2.004090
  H      -1.552505      5.004976      0.884087
  C      -3.202154      3.310200     -0.523115
  H      -3.352939      2.548835     -1.294354
  H      -3.136243      4.286098     -1.031460
  H      -4.080301      3.322986      0.142617
  C       0.584402      4.079058     -1.129593
  H      -0.307814      3.811238     -1.700166
  H       1.417375      4.167615     -1.849098
  H       0.446181      5.064004     -0.662432
  C       2.103594      3.280456      0.621296
  H       2.257976      2.466951      1.336442
  H       2.034698      4.217832      1.197537
  H       2.981019      3.343558     -0.042447
  C       2.107359      0.498689     -0.627266
  H       2.256363      1.312312     -1.343424
  H       2.040426     -0.439361     -1.202664
  H       2.987008      0.439513      0.033891
  C       0.596387     -0.304517      1.128749
  H      -0.295244     -0.039655      1.701604
  H       1.431747     -0.389187      1.845968
  H       0.460635     -1.290424      0.662881
  C      -1.679444     -0.225093     -1.279477
  H      -0.789289      0.083552     -1.832478
  H      -2.514789     -0.263537     -2.000791
  H      -1.538655     -1.240517     -0.883763
  C      -3.193563      0.445014      0.528642
  H      -3.346220      1.205238      1.300639
  H      -3.121303     -0.530778      1.036338
  H      -4.073334      0.428050     -0.134829
38
Coordinates from ORCA-job tdae E -614.500626652384
  C      -1.219580      1.882645      0.000861
  C       0.126862      1.885700     -0.000380
  N      -1.961399      3.045264      0.236534
  N      -1.956374      0.716626     -0.233874
  N       0.863570      3.065609     -0.153381
  N       0.869005      0.708996      0.151086
  C      -1.665856      3.926555      1.327717
  H      -0.803974      3.564576      1.879108
  H      -2.514424      3.982269      2.027515
  H      -1.462739      4.945375      0.978080
  C      -3.118718      3.372877     -0.546453
  H      -3.247270      2.646916     -1.344205
  H      -3.010173      4.361704     -1.010606
  H      -4.031924      3.387633      0.062724
  C       0.564333      4.019560     -1.180661
  H      -0.295333      3.692609     -1.756662
  H       1.412719      4.127951     -1.874340
  H       0.356075      5.010617     -0.761384
  C       2.018972      3.343636      0.651386
  H       2.150605      2.565354      1.397435
  H       1.905808      4.297696      1.182614
  H       2.932462      3.404517      0.045520
  C       2.023117      0.435496     -0.657059
  H       2.149175      1.214059     -1.403801
  H       1.912280     -0.519216     -1.187632
  H       2.938743      0.378649     -0.054022
  C       0.576895     -0.245727      1.179735
  H      -0.282307      0.077924      1.758311
  H       1.427934     -0.350286      1.870766
  H       0.371384     -1.237842      0.761568
  C      -1.658899     -0.162570     -1.326214
  H      -0.799978      0.203979     -1.879221
  H      -2.508693     -0.222064     -2.024216
  H      -1.450018     -1.180605     -0.977599
  C      -3.110354      0.383096      0.551506
  H      -3.240539      1.108101      1.349873
  H      -2.995970     -0.605407      1.014987
  H      -4.024858      0.364228     -0.055604
38
Coordinates from ORCA-job tdae E -614.501536166121
  C      -1.224663      1.882734      0.000491
  C       0.130371      1.885812     -0.000614
  N      -1.965761      3.040688      0.287816
  N      -1.960793      0.721232     -0.285357
  N       0.866778      3.064545     -0.204773
  N       0.872203      0.710298      0.202219
  C      -1.694385      3.847714      1.444575
  H      -0.864685      3.420174      2.008768
  H      -2.571548      3.897107      2.110382
  H      -1.431860      4.880173      1.170756
  C      -3.079758      3.441653     -0.526500
  H      -3.183408      2.761686     -1.374573
  H      -2.937792      4.457373     -0.924714
  H      -4.024743      3.435487      0.037396
  C       0.595249      3.949424     -1.303208
  H      -0.232016      3.560631     -1.898316
  H       1.473470      4.047525     -1.962063
  H       0.329819      4.959646     -0.958778
  C       1.977626      3.412950      0.637391
  H       2.081867      2.678069      1.438454
  H       1.831193      4.399090      1.102624
  H       2.923950      3.448026      0.076889
  C       1.982406      0.366255     -0.642592
  H       2.081714      1.101368     -1.444099
  H       1.838790     -0.620546     -1.107315
  H       2.930273      0.335113     -0.084459
  C       0.607025     -0.175473      1.301488
  H      -0.220214      0.210083      1.898754
  H       1.487445     -0.269978      1.957962
  H       0.344679     -1.186782      0.957883
  C      -1.688190     -0.084295     -1.442877
  H      -0.862162      0.347626     -2.009164
  H      -2.566801     -0.138234     -2.106428
  H      -1.419598     -1.115400     -1.169813
  C      -3.070678      0.314698      0.531758
  H      -3.175518      0.994179      1.380089
  H      -2.922583     -0.700292      0.929646
  H      -4.017140      0.316143     -0.029688
38
Coordinates from ORCA-job tdae E -614.502583405710
  C      -1.224823      1.882810      0.000402
  C       0.129725      1.885881     -0.000754
  N      -1.967703      3.032463      0.287532
  N      -1.962894      0.729572     -0.284860
  N       0.868018      3.056328     -0.204908
  N       0.873468      0.718680      0.201930
  C      -1.676694      3.858911      1.422525
  H      -0.854023      3.423228      1.986268
  H      -2.547028      3.946213      2.090300
  H      -1.384614      4.877194      1.130248
  C      -3.080323      3.425389     -0.528417
  H      -3.188450      2.726209     -1.357291
  H      -2.940085      4.431086     -0.948558
  H      -4.024680      3.433707      0.033860
  C       0.578765      3.958946     -1.280905
  H      -0.241101      3.563165     -1.877549
  H       1.451086      4.094347     -1.937809
  H       0.284121      4.953952     -0.919371
  C       1.976957      3.396522      0.639064
  H       2.084904      2.643993      1.420260
  H       1.832314      4.371677      1.124632
  H       2.923118      3.445130      0.082012
  C       1.982155      0.383253     -0.644276
  H       2.085546      1.136295     -1.425615
  H       1.840531     -0.592367     -1.129810
  H       2.929606      0.338411     -0.089105
  C       0.590141     -0.185515      1.278144
  H      -0.230091      0.206565      1.876736
  H       1.464483     -0.317618      1.933064
  H       0.298820     -1.181561      0.916758
  C      -1.670172     -0.096130     -1.419939
  H      -0.850925      0.343371     -1.985730
  H      -2.541510     -0.188305     -2.085751
  H      -1.372328     -1.112731     -1.127612
  C      -3.071665      0.331595      0.533858
  H      -3.181430      1.030771      1.362531
  H      -2.925406     -0.673102      0.954377
  H      -4.017255      0.318164     -0.026229
38
Coordinates from ORCA-job tdae E -614.503670889508
  C      -1.224608      1.882686      0.000655
  C       0.130013      1.885777     -0.000762
  N      -1.971282      3.029843      0.280985
  N      -1.966812      0.732180     -0.278110
  N       0.871620      3.053489     -0.198186
  N       0.877425      0.721530      0.195081
  C      -1.652808      3.888862      1.382102
  H      -0.848568      3.442630      1.961966
  H      -2.520226      4.034393      2.040256
  H      -1.316730      4.883083      1.057733
  C      -3.074485      3.416579     -0.549655
  H      -3.193086      2.690135     -1.350981
  H      -2.920285      4.404738     -1.003627
  H      -4.019599      3.457555      0.008008
  C       0.555104      3.985984     -1.238336
  H      -0.245090      3.580603     -1.853064
  H       1.424971      4.180451     -1.880228
  H       0.214169      4.954004     -0.846435
  C       1.970745      3.387035      0.660350
  H       2.088975      2.609685      1.412859
  H       1.812027      4.343085      1.177382
  H       2.917965      3.467281      0.110666
  C       1.976029      0.392710     -0.665933
  H       2.089426      1.170439     -1.418801
  H       1.820134     -0.563980     -1.182670
  H       2.924786      0.316408     -0.118343
  C       0.567427     -0.212625      1.235666
  H      -0.233127      0.188892      1.852452
  H       1.439703     -0.403413      1.875408
  H       0.229947     -1.182044      0.844178
  C      -1.645902     -0.126427     -1.378823
  H      -0.844582      0.323006     -1.960254
  H      -2.513575     -0.276743     -2.035545
  H      -1.304666     -1.118684     -1.053852
  C      -3.066848      0.340948      0.554612
  H      -3.187738      1.067528      1.355468
  H      -2.907291     -0.646050      1.009312
  H      -4.012597      0.294925     -0.001525
38
Coordinates from ORCA-job tdae E -614.504729313620
  C      -1.223665      1.882740      0.000545
  C       0.130412      1.885807     -0.000897
  N      -1.973458      3.028140      0.283362
  N      -1.969122      0.734036     -0.280518
  N       0.874599      3.052285     -0.200665
  N       0.880466      0.722841      0.197250
  C      -1.629747      3.905237      1.362069
  H      -0.849837      3.441499      1.962117
  H      -2.497766      4.101999      2.003810
  H      -1.247683      4.876852      1.019215
  C      -3.061695      3.422949     -0.564086
  H      -3.192583      2.679941     -1.347892
  H      -2.884534      4.397412     -1.039364
  H      -4.008530      3.495923     -0.013479
  C       0.531858      4.001155     -1.216744
  H      -0.242322      3.578882     -1.853916
  H       1.402172      4.248221     -1.837426
  H       0.141954      4.944010     -0.807793
  C       1.958047      3.393689      0.675644
  H       2.088512      2.601849      1.410383
  H       1.775540      4.335048      1.211942
  H       2.907374      3.505369      0.135902
  C       1.963397      0.386178     -0.681499
  H       2.089024      1.178482     -1.416583
  H       1.783648     -0.555899     -1.217506
  H       2.914333      0.278427     -0.143801
  C       0.544251     -0.228025      1.213682
  H      -0.230408      0.190256      1.852930
  H       1.417115     -0.471433      1.832253
  H       0.157744     -1.172424      0.805015
  C      -1.622227     -0.143383     -1.357919
  H      -0.845001      0.322955     -1.959438
  H      -2.489865     -0.345463     -1.998498
  H      -1.235229     -1.112470     -1.013415
  C      -3.054441      0.335296      0.568811
  H      -3.188134      1.078850      1.351622
  H      -2.872139     -0.637554      1.045496
  H      -4.001501      0.256822      0.019402
38
Coordinates from ORCA-job tdae E -614.505935993091
  C      -1.222647      1.882350      0.000531
  C       0.130610      1.885381     -0.000989
  N      -1.975642      3.026866      0.294838
  N      -1.972038      0.735112     -0.292710
  N       0.877617      3.051971     -0.212282
  N       0.884042      0.722734      0.209348
  C      -1.608217      3.908817      1.363034
  H      -0.858671      3.421867      1.986674
  H      -2.480299      4.149051      1.983227
  H      -1.180084      4.860357      1.014525
  C      -3.044338      3.443630     -0.570264
  H      -3.190490      2.694453     -1.346960
  H      -2.835648      4.408207     -1.055038
  H      -3.992156      3.548218     -0.026343
  C       0.509019      4.004884     -1.216648
  H      -0.234167      3.560378     -1.878510
  H       1.382261      4.295108     -1.813248
  H       0.071766      4.926558     -0.803759
  C       1.941938      3.414154      0.682435
  H       2.088383      2.616936      1.409606
  H       1.727725      4.344650      1.227803
  H       2.891914      3.557448      0.151071
  C       1.947723      0.364947     -0.687858
  H       2.088444      1.162032     -1.416307
  H       1.736620     -0.567147     -1.231758
  H       2.899738      0.226804     -0.158793
  C       0.523327     -0.231297      1.215637
  H      -0.220325      0.209594      1.879453
  H       1.399814     -0.516317      1.809974
  H       0.089885     -1.155647      0.804713
  C      -1.602598     -0.146021     -1.360893
  H      -0.855967      0.343606     -1.985948
  H      -2.474651     -0.390184     -1.979540
  H      -1.170087     -1.095546     -1.012288
  C      -3.037356      0.314068      0.574483
  H      -3.185653      1.062954      1.351060
  H      -2.823651     -0.649311      1.059512
  H      -3.985579      0.204836      0.032219
38
Coordinates from ORCA-job tdae E -614.507143366918
  C      -1.222506      1.882771      0.000428
  C       0.130517      1.885777     -0.000966
  N      -1.979483      3.022082      0.312194
  N      -1.975236      0.740186     -0.309409
  N       0.881721      3.048311     -0.230428
  N       0.887321      0.726661      0.226697
  C      -1.592521      3.901515      1.376738
  H      -0.874720      3.391816      2.021229
  H      -2.467753      4.179511      1.976711
  H      -1.123188      4.834322      1.028656
  C      -3.026240      3.468753     -0.566946
  H      -3.188482      2.719785     -1.341980
  H      -2.783064      4.424618     -1.054205
  H      -3.973603      3.604622     -0.029289
  C       0.492233      3.998899     -1.230413
  H      -0.218882      3.533323     -1.914442
  H       1.367694      4.326015     -1.804793
  H       0.013407      4.900715     -0.818733
  C       1.924925      3.438598      0.679340
  H       2.087642      2.641721      1.404868
  H       1.677101      4.359935      1.227125
  H       2.873900      3.612280      0.155412
  C       1.930631      0.341359     -0.685043
  H       2.088654      1.139125     -1.410662
  H       1.685931     -0.580865     -1.232760
  H       2.881257      0.171668     -0.162773
  C       0.504012     -0.226313      1.226836
  H      -0.208424      0.235242      1.912252
  H       1.381917     -0.549336      1.799815
  H       0.029068     -1.130343      0.815409
  C      -1.585080     -0.139501     -1.372570
  H      -0.870118      0.372310     -2.018546
  H      -2.459533     -0.422621     -1.971277
  H      -1.111104     -1.069424     -1.023008
  C      -3.018409      0.289741      0.571993
  H      -3.183452      1.039224      1.345936
  H      -2.769795     -0.663979      1.060746
  H      -3.965778      0.147999      0.035865
38
Coordinates from ORCA-job tdae E -614.508263982507
  C      -1.223979      1.882213      0.000477
  C       0.129526      1.885189     -0.001040
  N      -1.984325      3.014600      0.331311
  N      -1.980906      0.747285     -0.329847
  N       0.885055      3.041381     -0.251404
  N       0.891210      0.732968      0.249056
  C      -1.582392      3.886123      1.398305
  H      -0.900523      3.353141      2.063128
  H      -2.460187      4.199464      1.977372
  H      -1.073229      4.799453      1.055431
  C      -3.002979      3.500791     -0.561680
  H      -3.182489      2.757869     -1.339241
  H      -2.717523      4.446904     -1.045705
  H      -3.948534      3.671897     -0.031950
  C       0.478657      3.986133     -1.252124
  H      -0.200607      3.501523     -1.955561
  H       1.355016      4.344872     -1.806556
  H      -0.035081      4.869646     -0.844128
  C       1.905062      3.466725      0.670658
  H       2.086404      2.674701      1.397788
  H       1.620024      4.378301      1.217233
  H       2.850033      3.673000      0.152360
  C       1.910656      0.310800     -0.675098
  H       2.085769      1.102008     -1.404646
  H       1.628716     -0.603506     -1.218719
  H       2.858245      0.110601     -0.159182
  C       0.493059     -0.211600      1.253329
  H      -0.186641      0.270954      1.957776
  H       1.373090     -0.564065      1.806009
  H      -0.017091     -1.098895      0.849100
  C      -1.578666     -0.121069     -1.399375
  H      -0.901776      0.416032     -2.066036
  H      -2.457144     -0.437515     -1.975699
  H      -1.063965     -1.032353     -1.059563
  C      -2.994166      0.255068      0.565988
  H      -3.174640      0.996047      1.345180
  H      -2.702519     -0.690254      1.047935
  H      -3.940605      0.080067      0.039126
38
Coordinates from ORCA-job tdae E -614.509201155357
  C      -1.225059      1.883150      0.000643
  C       0.128651      1.886040     -0.000684
  N      -1.989439      3.009573      0.339805
  N      -1.984770      0.753117     -0.336589
  N       0.888533      3.035871     -0.261755
  N       0.893355      0.738973      0.257870
  C      -1.571969      3.885590      1.397229
  H      -0.924201      3.338735      2.083906
  H      -2.447084      4.242013      1.953496
  H      -1.022194      4.772811      1.049127
  C      -2.980600      3.520283     -0.570957
  H      -3.176241      2.773390     -1.340054
  H      -2.658377      4.449864     -1.063423
  H      -3.923971      3.729559     -0.052888
  C       0.463437      3.986314     -1.249352
  H      -0.187126      3.492218     -1.972444
  H       1.335111      4.384733     -1.782096
  H      -0.085835      4.844275     -0.833656
  C       1.887145      3.481093      0.674741
  H       2.086689      2.684275      1.391033
  H       1.570839      4.375550      1.231880
  H       2.827593      3.722961      0.165393
  C       1.891909      0.298544     -0.680924
  H       2.086691      1.096626     -1.397162
  H       1.578208     -0.596830     -1.238058
  H       2.834441      0.060219     -0.173713
  C       0.473756     -0.214275      1.245100
  H      -0.178217      0.276184      1.969415
  H       1.347853     -0.609075      1.776603
  H      -0.072066     -1.074386      0.829176
  C      -1.562862     -0.122951     -1.392170
  H      -0.918644      0.426122     -2.080443
  H      -2.436265     -0.485498     -1.947160
  H      -1.007598     -1.006082     -1.042168
  C      -2.971893      0.238248      0.576276
  H      -3.171080      0.985231      1.344424
  H      -2.643612     -0.688527      1.070050
  H      -3.914547      0.022563      0.059538
38
Coordinates from ORCA-job tdae E -614.509924729089
  C      -1.225575      1.881535      0.000396
  C       0.128687      1.884472     -0.001484
  N      -1.994591      3.002681      0.348865
  N      -1.992371      0.758509     -0.347649
  N       0.893090      3.029201     -0.272361
  N       0.899945      0.744424      0.270258
  C      -1.562650      3.883040      1.398385
  H      -0.946665      3.326106      2.105780
  H      -2.434202      4.277452      1.933055
  H      -0.978681      4.745058      1.045714
  C      -2.960897      3.537901     -0.577205
  H      -3.181615      2.786123     -1.334127
  H      -2.600044      4.445442     -1.083112
  H      -3.895475      3.792171     -0.065093
  C       0.453349      3.983544     -1.251202
  H      -0.166494      3.481619     -1.995274
  H       1.321311      4.418543     -1.759580
  H      -0.128775      4.815923     -0.830568
  C       1.868453      3.497228      0.679945
  H       2.093319      2.695939      1.382902
  H       1.515621      4.369084      1.250339
  H       2.799637      3.782978      0.178066
  C       1.876424      0.279915     -0.682570
  H       2.093659      1.080151     -1.389124
  H       1.528653     -0.596610     -1.248892
  H       2.810911      0.002853     -0.181948
  C       0.469742     -0.209031      1.254244
  H      -0.152119      0.291394      1.997650
  H       1.342218     -0.635040      1.762510
  H      -0.106880     -1.047663      0.838807
  C      -1.563604     -0.116582     -1.402957
  H      -0.953596      0.445104     -2.111719
  H      -2.437014     -0.511566     -1.934068
  H      -0.974902     -0.978067     -1.057238
  C      -2.952285      0.216951      0.581504
  H      -3.171828      0.965387      1.342059
  H      -2.585763     -0.690914      1.082675
  H      -3.888434     -0.038755      0.073026
38
Coordinates from ORCA-job tdae E -614.510325790564
  C      -1.225103      1.886451      0.000512
  C       0.129139      1.889329      0.000401
  N      -2.002578      2.999000      0.362620
  N      -1.993941      0.765773     -0.353199
  N       0.901243      3.026404     -0.285544
  N       0.901986      0.750916      0.276729
  C      -1.572001      3.870019      1.422263
  H      -0.990607      3.297210      2.146243
  H      -2.446463      4.287550      1.932732
  H      -0.956709      4.715843      1.086826
  C      -2.942424      3.560923     -0.577383
  H      -3.185029      2.809601     -1.327638
  H      -2.546264      4.449847     -1.089281
  H      -3.868861      3.852531     -0.071769
  C       0.462055      3.970893     -1.276082
  H      -0.122394      3.452844     -2.037670
  H       1.332619      4.427918     -1.758563
  H      -0.152329      4.787750     -0.873766
  C       1.850155      3.521386      0.682210
  H       2.097758      2.720998      1.378086
  H       1.461673      4.374216      1.257629
  H       2.772941      3.844880      0.189164
  C       1.856653      0.270466     -0.692497
  H       2.106995      1.080692     -1.375974
  H       1.472178     -0.574660     -1.281821
  H       2.777170     -0.058905     -0.199052
  C       0.453320     -0.210716      1.245931
  H      -0.140106      0.293481      2.009855
  H       1.318916     -0.675783      1.729764
  H      -0.156359     -1.020513      0.821718
  C      -1.546223     -0.118514     -1.394278
  H      -0.962216      0.447234     -2.121682
  H      -2.412108     -0.551894     -1.906186
  H      -0.926919     -0.953427     -1.038384
  C      -2.933289      0.208144      0.589856
  H      -3.186388      0.967314      1.328698
  H      -2.531396     -0.669942      1.115776
  H      -3.854536     -0.098758      0.083764
38
Coordinates from ORCA-job tdae E -614.510510324916
  C      -1.222888      1.878758      0.001797
  C       0.131112      1.881870     -0.001771
  N      -2.000838      2.992214      0.363567
  N      -2.001445      0.766738     -0.364215
  N       0.903014      3.021624     -0.282887
  N       0.913361      0.749870      0.283582
  C      -1.540834      3.886699      1.391200
  H      -0.975404      3.321655      2.134412
  H      -2.402377      4.347494      1.884865
  H      -0.898869      4.701891      1.029205
  C      -2.936138      3.548281     -0.585994
  H      -3.221950      2.773276     -1.296063
  H      -2.520042      4.398962     -1.144559
  H      -3.840799      3.894567     -0.075819
  C       0.441903      3.982733     -1.247741
  H      -0.115106      3.468725     -2.033038
  H       1.303075      4.482959     -1.702118
  H      -0.206952      4.765886     -0.831663
  C       1.832734      3.516955      0.704561
  H       2.119368      2.697877      1.363032
  H       1.411205      4.327066      1.317049
  H       2.737972      3.900186      0.222341
  C       1.843041      0.253744     -0.703665
  H       2.114970      1.067799     -1.374440
  H       1.428293     -0.569542     -1.303062
  H       2.756127     -0.111662     -0.222441
  C       0.472814     -0.202865      1.266326
  H      -0.082921      0.315654      2.049541
  H       1.344193     -0.686245      1.719492
  H      -0.170232     -0.999385      0.867688
  C      -1.554527     -0.113140     -1.410306
  H      -0.995360      0.461862     -2.150700
  H      -2.422561     -0.563960     -1.901858
  H      -0.911413     -0.935657     -1.068386
  C      -2.930662      0.200796      0.585716
  H      -3.209902      0.967819      1.306965
  H      -2.511727     -0.657032      1.131160
  H      -3.839675     -0.137972      0.078236
38
Coordinates from ORCA-job tdae E -614.510675661291
  C      -1.223315      1.883356     -0.000157
  C       0.131622      1.886395     -0.000854
  N      -2.006657      2.994787      0.357825
  N      -2.000516      0.767595     -0.357735
  N       0.909357      3.024192     -0.277724
  N       0.913012      0.751475      0.277030
  C      -1.564790      3.889578      1.393368
  H      -0.994156      3.330004      2.136269
  H      -2.435432      4.334248      1.886723
  H      -0.935632      4.716366      1.037243
  C      -2.955036      3.538732     -0.586264
  H      -3.246020      2.756990     -1.286657
  H      -2.548986      4.385591     -1.157216
  H      -3.854488      3.886470     -0.068084
  C       0.466457      3.986794     -1.250070
  H      -0.097224      3.478096     -2.033670
  H       1.336917      4.469475     -1.706635
  H      -0.168172      4.783231     -0.838812
  C       1.851214      3.507155      0.704806
  H       2.143442      2.680701      1.351408
  H       1.438244      4.310843      1.330898
  H       2.751079      3.894326      0.215994
  C       1.850091      0.265319     -0.708342
  H       2.135583      1.088436     -1.362121
  H       1.435563     -0.543701     -1.326558
  H       2.754288     -0.116029     -0.222906
  C       0.477098     -0.207527      1.256104
  H      -0.084090      0.303574      2.039888
  H       1.350847     -0.686042      1.710721
  H      -0.157615     -1.007355      0.851558
  C      -1.558422     -0.119512     -1.399875
  H      -0.995340      0.447302     -2.143016
  H      -2.428733     -0.567661     -1.890662
  H      -0.921949     -0.943961     -1.051257
  C      -2.938081      0.212335      0.590493
  H      -3.230456      0.988949      1.296004
  H      -2.520858     -0.633433      1.155145
  H      -3.838287     -0.140592      0.077150
38
Coordinates from ORCA-job tdae E -614.510781254676
  C      -1.223593      1.883108      0.000901
  C       0.130889      1.886122     -0.000352
  N      -2.004491      2.996239      0.356422
  N      -2.000088      0.765876     -0.352242
  N       0.906418      3.025036     -0.278398
  N       0.911964      0.750023      0.274375
  C      -1.573510      3.883228      1.402732
  H      -1.007735      3.318840      2.146026
  H      -2.449607      4.321375      1.892300
  H      -0.943344      4.714735      1.059622
  C      -2.950948      3.540031     -0.588306
  H      -3.254992      2.753769     -1.278205
  H      -2.539719      4.376476     -1.171859
  H      -3.843304      3.903049     -0.068457
  C       0.468154      3.982224     -1.257730
  H      -0.098363      3.469728     -2.037101
  H       1.340935      4.456519     -1.718761
  H      -0.163247      4.785333     -0.853904
  C       1.854285      3.504245      0.699233
  H       2.164256      2.671301      1.329250
  H       1.442072      4.294380      1.343637
  H       2.743273      3.908143      0.204312
  C       1.861420      0.277514     -0.705029
  H       2.165691      1.112836     -1.334737
  H       1.452813     -0.514370     -1.349476
  H       2.753562     -0.121703     -0.211909
  C       0.478340     -0.212224      1.250762
  H      -0.090920      0.294970      2.031526
  H       1.353362     -0.683726      1.710371
  H      -0.148985     -1.017302      0.844128
  C      -1.564443     -0.122303     -1.395524
  H      -0.999133      0.442056     -2.139063
  H      -2.438058     -0.564919     -1.885492
  H      -0.931775     -0.950615     -1.048949
  C      -2.944319      0.220330      0.593810
  H      -3.252238      1.006996      1.281595
  H      -2.529122     -0.612519      1.179547
  H      -3.834940     -0.148300      0.074958
38
Coordinates from ORCA-job tdae E -614.510882786188
  C      -1.223165      1.884165      0.000187
  C       0.131078      1.887114     -0.000227
  N      -2.002505      2.999409      0.351027
  N      -1.996460      0.763851     -0.347945
  N       0.905599      3.027874     -0.272161
  N       0.909346      0.748397      0.269259
  C      -1.572907      3.889346      1.394703
  H      -1.005750      3.327804      2.139121
  H      -2.449911      4.326812      1.883255
  H      -0.943534      4.721260      1.050290
  C      -2.956488      3.531591     -0.591515
  H      -3.285149      2.731558     -1.253982
  H      -2.545709      4.346045     -1.206211
  H      -3.833529      3.921258     -0.065244
  C       0.471590      3.986213     -1.251344
  H      -0.094970      3.475087     -2.031623
  H       1.346456      4.458028     -1.710917
  H      -0.159502      4.790917     -0.849950
  C       1.856145      3.497188      0.706520
  H       2.190878      2.652486      1.307711
  H       1.440145      4.260770      1.380472
  H       2.729975      3.931402      0.210765
  C       1.858900      0.282477     -0.711915
  H       2.189818      1.128374     -1.313482
  H       1.442899     -0.481879     -1.385050
  H       2.735277     -0.149644     -0.218779
  C       0.476962     -0.214014      1.245103
  H      -0.090868      0.293339      2.026880
  H       1.352582     -0.685884      1.703175
  H      -0.152471     -1.018768      0.840636
  C      -1.561150     -0.125671     -1.389493
  H      -0.997778      0.437960     -2.135135
  H      -2.435062     -0.570455     -1.876918
  H      -0.925740     -0.952161     -1.042945
  C      -2.943698      0.225918      0.597976
  H      -3.277001      1.024296      1.260104
  H      -2.524719     -0.584264      1.212792
  H      -3.819022     -0.171700      0.074868
38
Coordinates from ORCA-job tdae E -614.510907234322
  C      -1.223215      1.881635      0.001235
  C       0.131332      1.884720     -0.000672
  N      -1.999477      2.999476      0.349688
  N      -1.997183      0.761523     -0.345473
  N       0.902415      3.027606     -0.271910
  N       0.910386      0.746570      0.267979
  C      -1.569585      3.885769      1.396289
  H      -1.008483      3.320046      2.142034
  H      -2.446135      4.327098      1.882188
  H      -0.934094      4.714730      1.055886
  C      -2.946747      3.536073     -0.596860
  H      -3.286143      2.735043     -1.252825
  H      -2.526102      4.339702     -1.219173
  H      -3.817931      3.941633     -0.073186
  C       0.464019      3.983909     -1.251106
  H      -0.100228      3.470019     -2.031182
  H       1.336393      4.460079     -1.711014
  H      -0.171404      4.785293     -0.849895
  C       1.850420      3.499764      0.707544
  H       2.199491      2.653988      1.299178
  H       1.427823      4.250462      1.391814
  H       2.715379      3.950899      0.211651
  C       1.861473      0.282916     -0.712618
  H       2.202634      1.131828     -1.304347
  H       1.444545     -0.471207     -1.396552
  H       2.730914     -0.160843     -0.217902
  C       0.480139     -0.214679      1.245853
  H      -0.088417      0.293292      2.026630
  H       1.356602     -0.684099      1.704917
  H      -0.148120     -1.021147      0.843453
  C      -1.565421     -0.126121     -1.390167
  H      -1.002686      0.438665     -2.135361
  H      -2.441020     -0.567938     -1.877309
  H      -0.930710     -0.954698     -1.047505
  C      -2.944887      0.225612      0.601032
  H      -3.286038      1.027332      1.255262
  H      -2.524363     -0.576515      1.225263
  H      -3.815017     -0.181938      0.077171
38
Coordinates from ORCA-job tdae E -614.510888117521
  C      -1.223113      1.882525      0.001279
  C       0.131502      1.885621      0.000039
  N      -2.000479      2.999732      0.350005
  N      -1.995926      0.762244     -0.347329
  N       0.903299      3.027760     -0.271909
  N       0.909421      0.747192      0.269782
  C      -1.569911      3.886935      1.395651
  H      -1.006569      3.321718      2.140164
  H      -2.445979      4.327167      1.883268
  H      -0.935957      4.716714      1.054438
  C      -2.948741      3.534813     -0.596466
  H      -3.287154      2.733093     -1.252174
  H      -2.529521      4.338700     -1.219324
  H      -3.820444      3.939431     -0.072981
  C       0.462974      3.985057     -1.249269
  H      -0.102263      3.471557     -2.028908
  H       1.334144      4.462514     -1.709943
  H      -0.172802      4.785440     -0.846275
  C       1.853520      3.498405      0.706197
  H       2.202121      2.652211      1.297622
  H       1.433543      4.249842      1.391192
  H       2.718530      3.947961      0.208957
  C       1.856703      0.279093     -0.712355
  H       2.197603      1.125514     -1.307880
  H       1.436479     -0.476255     -1.392964
  H       2.726819     -0.164805     -0.218956
  C       0.478080     -0.211190      1.250055
  H      -0.087664      0.300064      2.030770
  H       1.353701     -0.682698      1.708426
  H      -0.153752     -1.016250      0.850277
  C      -1.561701     -0.122882     -1.393221
  H      -0.999845      0.444865     -2.136903
  H      -2.435868     -0.565923     -1.881706
  H      -0.924874     -0.950502     -1.052086
  C      -2.941545      0.222878      0.599288
  H      -3.282988      1.022765      1.255640
  H      -2.518971     -0.579726      1.221596
  H      -3.811812     -0.185080      0.076013
38
Coordinates from ORCA-job tdae E -614.510903815922
  C      -1.223090      1.882603      0.000203
  C       0.131591      1.885511     -0.001129
  N      -2.000365      2.999659      0.349726
  N      -1.996501      0.762301     -0.347334
  N       0.903704      3.027595     -0.272117
  N       0.909607      0.747232      0.268930
  C      -1.568342      3.887298      1.394400
  H      -1.002007      3.322598      2.137005
  H      -2.443573      4.326173      1.884777
  H      -0.936551      4.718090      1.051617
  C      -2.950659      3.533780     -0.595190
  H      -3.287958      2.732052     -1.251444
  H      -2.533701      4.339068     -1.217714
  H      -3.822777      3.936194     -0.070662
  C       0.464179      3.985177     -1.249518
  H      -0.100167      3.471825     -2.029870
  H       1.335562      4.463209     -1.709135
  H      -0.172272      4.785107     -0.846650
  C       1.852961      3.498181      0.706880
  H       2.198934      2.652514      1.300555
  H       1.432934      4.251459      1.389844
  H       2.719725      3.945450      0.210594
  C       1.859247      0.280545     -0.711583
  H       2.198755      1.127126     -1.307652
  H       1.441704     -0.476406     -1.392017
  H       2.729887     -0.160830     -0.216795
  C       0.476999     -0.212227      1.247598
  H      -0.091197      0.297947      2.027197
  H       1.351869     -0.683329      1.707807
  H      -0.153090     -1.017561      0.845541
  C      -1.562613     -0.124097     -1.392254
  H      -0.999200      0.442527     -2.135578
  H      -2.436790     -0.566343     -1.881474
  H      -0.927236     -0.952322     -1.049885
  C      -2.942449      0.224451      0.599772
  H      -3.281606      1.024749      1.256798
  H      -2.520882     -0.579139      1.221479
  H      -3.814069     -0.181666      0.077290
