# avogadro generated ORCA input file 
# Basic Mode
# 
! wB97X-D3 OPT def2-TZVP def2/J CPCM
%cpcm
  epsilon 3
end
%pal
 nprocs 4
end 

* xyz 0 1
   C       -4.85490        2.68203        0.00000
   C       -4.84715        1.28595        0.00000
   C       -3.64970        3.39253        0.00000
   H       -5.79859        3.21252        0.00000
   C       -3.63540        0.59124        0.00000
   H       -5.78257        0.74119        0.00000
   C       -2.42237        2.70676        0.00000
   H       -3.67978        4.47498        0.00000
   C       -2.41841        1.29176        0.00000
   H       -3.65085       -0.49136        0.00000
   C       -1.20316        3.40667        0.00000
   C       -1.20041        0.59930        0.00000
   C        0.01924        2.71066        0.00000
   H       -1.20697        4.49021        0.00000
   C        0.01610        1.29687        0.00000
   H       -1.19942       -0.48449        0.00000
   C        1.24445        3.40249        0.00000
   C        1.23000        0.59697        0.00000
   C        2.46279        2.69840        0.00000
   H        1.24968        4.48634        0.00000
   C        2.45110        1.28460        0.00000
   H        1.22452       -0.48658        0.00000
   C        3.69198        3.38153        0.00000
   C        3.66008        0.57366        0.00000
   C        4.90369        2.66839        0.00000
   H        3.70706        4.46536        0.00000
   C        4.88466        1.25335        0.00000
   H        3.64748       -0.51017        0.00000
   C        6.13762        3.34137        0.00000
   C        6.09448        0.53977        0.00000
   C        7.33510        2.61794        0.00000
   H        6.17868        4.42313        0.00000
   C        7.31307        1.22198        0.00000
   H        6.09848       -0.54334        0.00000
   H        8.28385        3.13896        0.00000
   H        8.24278        0.66739        0.00000
*

