# avogadro generated ORCA input file 
# Basic Mode
# 
! wB97X-D3 OPT def2-TZVP def2/J CPCM
%cpcm
  epsilon 3
end
%pal
 nprocs 4
end

* xyz 0 1
   C        1.91283        6.21445        0.85304
   C        0.52806        6.17930        1.00804
   C        2.61408        5.04321        0.56876
   H        2.44942        7.14903        0.95237
   C        1.94543        3.81198        0.43345
   H        3.68839        5.10250        0.45405
   C       -0.15771        4.96762        0.87810
   H       -0.00901        7.09359        1.22876
   C        0.54314        3.78342        0.59163
   H       -1.23395        4.95278        1.00073
   H       -0.01185        2.85866        0.49614
   C        2.74404        2.59096        0.12923
   O        3.95689        2.68160        0.00383
   O        2.18816        1.36899       -0.01760
  Li        1.89969       -0.14228       -0.24560
*

