# avogadro generated ORCA input file 
# Basic Mode
# 
! wB97X-D3 OPT def2-TZVP def2/J CPCM
%cpcm
  epsilon 3
end
%pal
 nprocs 8
end 

* xyz -1 2
   C       -2.20331        1.19339       -0.02719
   C       -1.30213        2.42139       -0.01128
   C       -0.61539        2.58769        1.34411
   C        0.59848        3.52010        1.37559
   N        0.36882        5.05662        1.43498
   C       -0.28809        5.53866        0.11399
   C       -0.27409        7.05921       -0.08012
   C       -1.19449        7.46406       -1.23470
   C       -1.17821        8.96769       -1.45953
   C       -0.41807        5.47256        2.70528
   C       -1.94091        5.53082        2.55163
   C       -2.60981        5.73523        3.91407
   C       -4.12272        5.81703        3.78564
   C        1.80450        5.71691        1.50588
   C        2.64990        5.28679        2.71086
   C        3.94881        6.09734        2.76683
   C        4.82230        5.67081        3.93607
   H       -1.62629        0.27928        0.14589
   H       -2.69955        1.10078       -0.99838
   H       -2.97611        1.26494        0.74487
   H       -0.55398        2.32386       -0.80566
   H       -1.92334        3.28723       -0.24547
   H       -0.22953        1.59671        1.62482
   H       -1.33814        2.82968        2.12593
   H        1.24670        3.32920        0.51382
   H        1.15072        3.25990        2.28251
   H        0.25334        5.05413       -0.70727
   H       -1.31488        5.17709        0.10978
   H        0.74067        7.39803       -0.31831
   H       -0.58722        7.57974        0.83063
   H       -0.88101        6.95823       -2.15539
   H       -2.22144        7.14505       -1.02150
   H       -0.17052        9.31671       -1.70657
   H       -1.51761        9.50138       -0.56603
   H       -1.84257        9.23434       -2.28741
   H       -0.06066        6.46887        2.99116
   H       -0.13141        4.77121        3.49689
   H       -2.22397        6.36669        1.90289
   H       -2.34389        4.62612        2.09295
   H       -2.23746        6.65626        4.37755
   H       -2.35152        4.90616        4.58320
   H       -4.41750        6.65583        3.14705
   H       -4.57932        5.96215        4.76966
   H       -4.52996        4.89688        3.35450
   H        2.30932        5.47199        0.56423
   H        1.65062        6.79924        1.55669
   H        2.91664        4.22815        2.64562
   H        2.10102        5.43171        3.64691
   H        4.50921        5.96704        1.83361
   H        3.71803        7.16480        2.86154
   H        5.10090        4.61539        3.85294
   H        4.30155        5.81516        4.88803
   H        5.74191        6.26385        3.95822
   N        6.26842        1.64079       -3.35345
   C        5.75243        1.37557       -2.35064
   C        5.11614        1.05993       -1.11906
   C        4.53309        2.11843       -0.36153
   N        3.97858        2.91786        0.27317
   C        5.02271       -0.24113       -0.77148
   C        5.16023       -0.73320        0.69392
   C        5.81296       -1.87371        0.99850
   C        5.79262       -3.03221        0.17227
   N        5.71082       -3.93788       -0.54574
   C        6.54450       -1.90097        2.21696
   N        7.12847       -1.87313        3.21763
   C        3.95837       -0.70609       -0.00298
   C        2.65227       -0.92979        0.05328
   C        1.82422       -0.56507       -1.03973
   N        1.17973       -0.16253       -1.91479
   C        2.05848       -1.38659        1.25797
   N        1.59877       -1.70351        2.27313
*

