# avogadro generated ORCA input file 
# Basic Mode
# 
! wB97X-D3 OPT def2-TZVP def2/J CPCM
%cpcm
  epsilon 3
end
%pal
 nprocs 4
end

* xyz 0 1
   C        4.14670        2.88093        0.23486
   C        4.55099        1.76156       -0.71586
   C        2.65554        3.22430        0.02786
   H        4.76131        3.79328        0.07912
   H        4.31078        2.52031        1.27463
   N        1.81224        2.03989       -0.04187
   H        2.51783        3.79314       -0.91681
   H        2.33703        3.87085        0.87322
   C        2.36184        0.73451       -0.19053
   H        0.78826        2.15965       -0.05148
   N        3.76949        0.58684       -0.37637
   H        5.63991        1.54983       -0.64860
   H        4.31910        2.08144       -1.75555
   N        1.58906       -0.30359       -0.17689
   C        4.36395       -0.72995       -0.24323
   C        3.47710       -1.70611       -1.00177
   H        4.37536       -1.02629        0.82891
   H        5.40847       -0.74502       -0.62236
   C        2.07097       -1.66564       -0.37007
   H        3.88000       -2.74092       -0.96905
   H        3.42444       -1.37776       -2.06350
   H        1.36993       -2.22739       -1.02250
   H        2.08706       -2.16231        0.62391
*

