27
Coordinates from ORCA-job DBU E -462.132063657930
  N       4.485460      5.424910      0.236500
  C       3.054340      5.310580      0.348920
  N       2.494160      4.142630      0.349910
  C       5.325570      4.228100      0.290710
  C       4.570110      3.026670      0.866250
  C       3.234560      2.914040      0.160070
  H       3.402570      2.748330     -0.926730
  H       2.646440      2.061330      0.559480
  H       6.197730      4.396780      0.960230
  H       5.703550      4.015320     -0.732980
  H       5.173870      2.100100      0.759900
  H       4.372890      3.199190      1.947930
  C       5.145740      6.705810      0.034160
  C       5.028980      7.610990      1.266640
  H       4.777790      7.209490     -0.885610
  H       6.235220      6.528010     -0.111720
  C       3.674630      8.304510      1.431600
  H       5.769610      8.431830      1.142760
  H       5.306080      7.043670      2.181860
  C       2.459360      7.397970      1.646250
  H       3.490630      8.944110      0.539800
  H       3.750600      8.978650      2.312720
  C       2.149230      6.511370      0.440710
  H       1.594710      8.085520      1.777040
  H       2.550590      6.790620      2.573230
  H       2.186750      7.110350     -0.494560
  H       1.104670      6.142860      0.553030
27
Coordinates from ORCA-job DBU E -462.144194331448
  N       4.446879      5.412325      0.240338
  C       3.061015      5.277002      0.331895
  N       2.470702      4.139488      0.330217
  C       5.307272      4.242301      0.296723
  C       4.571927      3.045339      0.870672
  C       3.233994      2.925366      0.164272
  H       3.400175      2.748129     -0.907175
  H       2.654232      2.085734      0.554217
  H       6.165381      4.450547      0.946464
  H       5.689040      4.023797     -0.708886
  H       5.180393      2.143218      0.768082
  H       4.384277      3.214071      1.936558
  C       5.102040      6.694815      0.050380
  C       5.027826      7.616140      1.268684
  H       4.727830      7.198275     -0.848959
  H       6.161369      6.492496     -0.126666
  C       3.685951      8.313098      1.451045
  H       5.778389      8.406742      1.141183
  H       5.300383      7.048325      2.163928
  C       2.479096      7.398337      1.638661
  H       3.503383      8.948427      0.576117
  H       3.759015      8.977710      2.319793
  C       2.191045      6.497471      0.431923
  H       1.613412      8.056342      1.773400
  H       2.570599      6.794154      2.546471
  H       2.250546      7.086511     -0.490632
  H       1.169669      6.127578      0.509396
27
Coordinates from ORCA-job DBU E -462.146843156873
  N       4.418670      5.408086      0.237736
  C       3.064159      5.257572      0.312433
  N       2.446558      4.134678      0.313348
  C       5.298904      4.253140      0.301504
  C       4.574074      3.057016      0.880699
  C       3.231940      2.925236      0.177718
  H       3.396714      2.720514     -0.887222
  H       2.656899      2.090059      0.576406
  H       6.154475      4.499607      0.934856
  H       5.685734      4.022619     -0.697157
  H       5.187962      2.163018      0.778427
  H       4.395776      3.223799      1.945523
  C       5.067282      6.695483      0.053475
  C       5.029568      7.617781      1.270366
  H       4.667964      7.207165     -0.826921
  H       6.110882      6.477438     -0.168080
  C       3.694577      8.319556      1.476149
  H       5.797444      8.385058      1.142738
  H       5.300971      7.034979      2.154221
  C       2.490733      7.396326      1.627940
  H       3.513647      8.972594      0.616630
  H       3.764463      8.968293      2.352340
  C       2.221807      6.500912      0.411791
  H       1.613417      8.028991      1.774657
  H       2.584784      6.775379      2.521863
  H       2.316327      7.092404     -0.504046
  H       1.200106      6.136038      0.450703
27
Coordinates from ORCA-job DBU E -462.147338556705
  N       4.414395      5.410878      0.227274
  C       3.061514      5.256887      0.294571
  N       2.434716      4.135757      0.304926
  C       5.300446      4.258345      0.302579
  C       4.574198      3.066596      0.891651
  C       3.229816      2.925707      0.193552
  H       3.392390      2.693898     -0.867344
  H       2.657334      2.095426      0.609743
  H       6.157563      4.522306      0.927738
  H       5.688072      4.015956     -0.694050
  H       5.187054      2.170259      0.790253
  H       4.402747      3.236035      1.958518
  C       5.057852      6.702366      0.044963
  C       5.032118      7.612523      1.270899
  H       4.635630      7.221670     -0.820954
  H       6.096571      6.487013     -0.206383
  C       3.697787      8.313660      1.491915
  H       5.808824      8.372541      1.149379
  H       5.303616      7.016238      2.147815
  C       2.493004      7.387048      1.619719
  H       3.518772      8.988298      0.646741
  H       3.765688      8.944649      2.381903
  C       2.228160      6.510258      0.390497
  H       1.608894      8.007442      1.782734
  H       2.591342      6.746945      2.502005
  H       2.347497      7.108799     -0.519013
  H       1.199838      6.156238      0.406469
27
Coordinates from ORCA-job DBU E -462.147536340249
  N       4.413608      5.415715      0.210486
  C       3.058325      5.261446      0.275239
  N       2.428405      4.140556      0.297543
  C       5.301848      4.264310      0.301284
  C       4.573566      3.080449      0.905140
  C       3.228715      2.929150      0.212347
  H       3.388420      2.667568     -0.842762
  H       2.658667      2.107145      0.650946
  H       6.160845      4.542563      0.918518
  H       5.687892      4.007492     -0.693260
  H       5.182719      2.179952      0.806329
  H       4.409062      3.255997      1.973024
  C       5.053060      6.710698      0.032585
  C       5.034840      7.602334      1.272243
  H       4.609464      7.239525     -0.817117
  H       6.087294      6.502618     -0.246185
  C       3.700528      8.301117      1.505908
  H       5.817583      8.358889      1.161641
  H       5.305249      6.991811      2.141006
  C       2.494367      7.372719      1.610777
  H       3.524810      8.999221      0.677815
  H       3.766252      8.910689      2.411668
  C       2.229472      6.520262      0.365085
  H       1.606528      7.983149      1.794178
  H       2.598134      6.711973      2.478973
  H       2.370788      7.126907     -0.536503
  H       1.195400      6.179485      0.361196
27
Coordinates from ORCA-job DBU E -462.147585096511
  N       4.412934      5.418657      0.196357
  C       3.057018      5.265313      0.263184
  N       2.428263      4.144384      0.294059
  C       5.301350      4.268487      0.298167
  C       4.573489      3.090455      0.913366
  C       3.228336      2.932076      0.223991
  H       3.385631      2.654140     -0.827141
  H       2.659277      2.116735      0.676584
  H       6.160889      4.553573      0.911487
  H       5.685867      4.002224     -0.694497
  H       5.180371      2.187864      0.818073
  H       4.412573      3.272307      1.980627
  C       5.051106      6.715133      0.024813
  C       5.036173      7.594274      1.273759
  H       4.598486      7.250529     -0.815600
  H       6.082984      6.512005     -0.266069
  C       3.702082      8.291646      1.513193
  H       5.820194      8.350890      1.171639
  H       5.305140      6.975614      2.137059
  C       2.495024      7.363002      1.605886
  H       3.529132      9.002414      0.695380
  H       3.766709      8.888191      2.427751
  C       2.229693      6.524883      0.349691
  H       1.607401      7.970184      1.800817
  H       2.600967      6.691230      2.465398
  H       2.381025      7.136644     -0.546572
  H       1.193726      6.190887      0.336697
27
Coordinates from ORCA-job DBU E -462.147638381108
  N       4.412184      5.420687      0.182275
  C       3.056195      5.268237      0.254173
  N       2.429609      4.147079      0.292310
  C       5.300431      4.271818      0.293887
  C       4.573942      3.098469      0.919037
  C       3.227918      2.934187      0.232540
  H       3.383120      2.645798     -0.815780
  H       2.659356      2.124240      0.695041
  H       6.159798      4.561175      0.905194
  H       5.684299      3.997768     -0.696646
  H       5.179811      2.194902      0.828246
  H       4.414943      3.287164      1.985082
  C       5.050539      6.717955      0.019088
  C       5.037050      7.587249      1.275237
  H       4.594995      7.259359     -0.815407
  H       6.081355      6.518082     -0.276941
  C       3.703161      8.284073      1.518041
  H       5.820809      8.344961      1.180575
  H       5.304258      6.962511      2.134296
  C       2.494896      7.356066      1.602845
  H       3.532781      9.002672      0.706993
  H       3.767296      8.871730      2.438272
  C       2.229370      6.527246      0.339381
  H       1.608873      7.963094      1.804506
  H       2.600947      6.677289      2.456439
  H       2.385098      7.143265     -0.552675
  H       1.192807      6.196663      0.322090
27
Coordinates from ORCA-job DBU E -462.147647115663
  N       4.411421      5.421565      0.171858
  C       3.055865      5.269479      0.249764
  N       2.430491      4.148223      0.292632
  C       5.299894      4.273756      0.290323
  C       4.574700      3.103065      0.921838
  C       3.227639      2.935162      0.237416
  H       3.381627      2.642240     -0.809684
  H       2.659490      2.127827      0.704642
  H       6.158689      4.565765      0.900973
  H       5.684180      3.994648     -0.698435
  H       5.180726      2.199415      0.834810
  H       4.416245      3.296933      1.986874
  C       5.050145      6.719297      0.015708
  C       5.037307      7.582436      1.276140
  H       4.594721      7.265046     -0.815831
  H       6.080733      6.520828     -0.281546
  C       3.703814      8.279714      1.521062
  H       5.820854      8.340754      1.186126
  H       5.303150      6.953673      2.132472
  C       2.494133      7.352996      1.601459
  H       3.535280      9.001974      0.713149
  H       3.768087      8.862923      2.443999
  C       2.229400      6.528201      0.334625
  H       1.609494      7.961325      1.804562
  H       2.598392      6.671021      2.452484
  H       2.386616      7.146891     -0.555018
  H       1.192750      6.198584      0.315697
27
Coordinates from ORCA-job DBU E -462.147653170373
  N       4.410675      5.422033      0.161777
  C       3.055583      5.270153      0.246506
  N       2.430723      4.148955      0.294158
  C       5.299746      4.275288      0.287158
  C       4.575502      3.106742      0.923900
  C       3.227530      2.935969      0.241246
  H       3.380843      2.640615     -0.805275
  H       2.659978      2.129854      0.711131
  H       6.157601      4.570103      0.897715
  H       5.685394      3.991619     -0.699649
  H       5.182181      2.203275      0.840697
  H       4.416933      3.305431      1.988011
  C       5.049685      6.720238      0.012532
  C       5.037259      7.577882      1.276651
  H       4.595089      7.270003     -0.816746
  H       6.080315      6.522652     -0.285036
  C       3.704464      8.276158      1.523876
  H       5.821136      8.336190      1.190464
  H       5.301819      6.945230      2.130490
  C       2.493007      7.351308      1.600621
  H       3.537568      9.001115      0.718086
  H       3.769366      8.856166      2.448708
  C       2.229462      6.528885      0.331804
  H       1.609496      7.961420      1.802967
  H       2.594328      6.667346      2.450350
  H       2.387313      7.149827     -0.556021
  H       1.192845      6.199285      0.311979
27
Coordinates from ORCA-job DBU E -462.147656744559
  N       4.410018      5.422136      0.152987
  C       3.055356      5.270491      0.244438
  N       2.430408      4.149476      0.296569
  C       5.299962      4.276461      0.285119
  C       4.576065      3.109617      0.925637
  C       3.227724      2.936799      0.244027
  H       3.380964      2.640735     -0.802391
  H       2.660923      2.130645      0.714741
  H       6.156561      4.574352      0.895981
  H       5.687674      3.988984     -0.699729
  H       5.183455      2.206348      0.845722
  H       4.416967      3.312108      1.989025
  C       5.048941      6.720925      0.009367
  C       5.037032      7.573755      1.276692
  H       4.594553      7.273979     -0.817849
  H       6.079567      6.524190     -0.288909
  C       3.705196      8.273257      1.526391
  H       5.821873      8.331383      1.193458
  H       5.300541      6.937487      2.128271
  C       2.491907      7.350508      1.600086
  H       3.539612      9.000574      0.722354
  H       3.771090      8.850727      2.452706
  C       2.229537      6.529510      0.330212
  H       1.609104      7.962253      1.800642
  H       2.589946      6.665404      2.449360
  H       2.387931      7.151981     -0.556457
  H       1.192934      6.199655      0.309651
27
Coordinates from ORCA-job DBU E -462.147658547292
  N       4.409620      5.421919      0.148210
  C       3.055151      5.270569      0.243705
  N       2.429929      4.149681      0.298545
  C       5.300333      4.277037      0.285100
  C       4.576073      3.110955      0.926741
  C       3.228161      2.937430      0.244763
  H       3.382086      2.642499     -0.801961
  H       2.661867      2.130224      0.714352
  H       6.155558      4.577235      0.896840
  H       5.690310      3.987721     -0.698316
  H       5.183892      2.207778      0.848582
  H       4.416083      3.314968      1.989780
  C       5.048242      6.721158      0.007092
  C       5.036854      7.571402      1.276184
  H       4.593309      7.275689     -0.818852
  H       6.078777      6.525083     -0.292130
  C       3.705844      8.271799      1.527583
  H       5.822744      8.328136      1.194251
  H       5.299885      6.933058      2.126468
  C       2.491433      7.350466      1.600042
  H       3.540751      9.000496      0.724571
  H       3.772736      8.847995      2.454632
  C       2.229361      6.529801      0.330093
  H       1.608878      7.963124      1.799163
  H       2.587449      6.665245      2.449552
  H       2.387729      7.152662     -0.556360
  H       1.192785      6.199609      0.309470
