# avogadro generated ORCA input file 
# Basic Mode
# 
! wB97X-D3 OPT def2-TZVP def2/J CPCM
%cpcm
  epsilon 3
end
%pal
 nprocs 4
end

* xyz 0 1
   N        5.06909        5.31401        0.59676
   C        3.68590        5.56525        0.72198
   N        2.79631        4.65482        0.50541
   C        5.53570        4.06529        0.03709
   C        4.62142        2.95788        0.56337
   C        3.15767        3.27743        0.19274
   H        3.00397        3.12654       -0.89726
   H        2.48887        2.57677        0.73550
   H        6.58563        3.87606        0.34693
   H        5.48393        4.10800       -1.07284
   H        4.91562        1.96054        0.17256
   H        4.71250        2.94107        1.67230
   C        5.73265        6.58244        0.45091
   C        4.81456        7.52284        1.23446
   H        5.73355        6.86149       -0.62653
   H        6.77001        6.57832        0.84840
   C        3.40026        7.01045        0.93212
   H        4.97418        8.61046        1.07886
   H        5.00759        7.29931        2.30957
   H        3.00386        7.41437       -0.02407
   H        2.70963        7.23467        1.77287
*

