21
Coordinates from ORCA-job DBU E -383.502634450140
  N       5.069090      5.314010      0.596760
  C       3.685900      5.565250      0.721980
  N       2.796310      4.654820      0.505410
  C       5.535700      4.065290      0.037090
  C       4.621420      2.957880      0.563370
  C       3.157670      3.277430      0.192740
  H       3.003970      3.126540     -0.897260
  H       2.488870      2.576770      0.735500
  H       6.585630      3.876060      0.346930
  H       5.483930      4.108000     -1.072840
  H       4.915620      1.960540      0.172560
  H       4.712500      2.941070      1.672300
  C       5.732650      6.582440      0.450910
  C       4.814560      7.522840      1.234460
  H       5.733550      6.861490     -0.626530
  H       6.770010      6.578320      0.848400
  C       3.400260      7.010450      0.932120
  H       4.974180      8.610460      1.078860
  H       5.007590      7.299310      2.309570
  H       3.003860      7.414370     -0.024070
  H       2.709630      7.234670      1.772870
21
Coordinates from ORCA-job DBU E -383.511925529153
  N       5.045808      5.316507      0.601539
  C       3.674889      5.531209      0.698029
  N       2.772964      4.647383      0.515740
  C       5.521297      4.079198      0.041378
  C       4.618011      2.969817      0.560160
  C       3.161710      3.284186      0.203733
  H       2.998716      3.125894     -0.868873
  H       2.503541      2.594072      0.737900
  H       6.556061      3.910803      0.349871
  H       5.484953      4.119368     -1.058183
  H       4.916319      1.996574      0.164697
  H       4.714187      2.937475      1.650419
  C       5.732876      6.585002      0.452795
  C       4.825321      7.519195      1.241564
  H       5.761484      6.874865     -0.610978
  H       6.750891      6.562511      0.847627
  C       3.418749      6.988966      0.927148
  H       4.979271      8.582879      1.064490
  H       5.017806      7.322008      2.302667
  H       3.027825      7.401006     -0.007616
  H       2.720221      7.189094      1.737024
21
Coordinates from ORCA-job DBU E -383.514074452506
  N       5.029925      5.320702      0.602338
  C       3.669518      5.516359      0.684710
  N       2.755990      4.645444      0.538531
  C       5.516853      4.085108      0.041721
  C       4.617579      2.969065      0.549959
  C       3.161638      3.285218      0.214712
  H       2.982541      3.122179     -0.852778
  H       2.506320      2.594634      0.747397
  H       6.550061      3.929614      0.353532
  H       5.497020      4.123030     -1.056193
  H       4.915602      2.008751      0.131993
  H       4.727317      2.908558      1.634757
  C       5.733970      6.583968      0.461457
  C       4.827507      7.525827      1.245540
  H       5.796046      6.878240     -0.595430
  H       6.743549      6.533466      0.865617
  C       3.428301      6.984774      0.928009
  H       4.974526      8.578657      1.022699
  H       5.022018      7.371462      2.308483
  H       3.036354      7.408696      0.001400
  H       2.710265      7.164256      1.722677
21
Coordinates from ORCA-job DBU E -383.514698843935
  N       5.022795      5.322739      0.597953
  C       3.666983      5.512972      0.685280
  N       2.746685      4.644351      0.558055
  C       5.518111      4.085822      0.041284
  C       4.617498      2.966039      0.540960
  C       3.159538      3.284732      0.220433
  H       2.969572      3.123440     -0.846488
  H       2.505214      2.589923      0.751408
  H       6.551293      3.936680      0.360290
  H       5.512336      4.122215     -1.057101
  H       4.911907      2.013123      0.100747
  H       4.739234      2.880460      1.623799
  C       5.735992      6.581031      0.470459
  C       4.825987      7.533217      1.243944
  H       5.825590      6.878805     -0.583339
  H       6.740285      6.507943      0.888325
  C       3.429572      6.986034      0.933884
  H       4.965295      8.578035      0.975458
  H       5.027496      7.421204      2.310940
  H       3.031329      7.416349      0.011253
  H       2.700188      7.152895      1.723587
21
Coordinates from ORCA-job DBU E -383.514949560973
  N       5.019035      5.323589      0.588138
  C       3.665474      5.513733      0.688787
  N       2.742575      4.643547      0.570373
  C       5.520585      4.084157      0.041275
  C       4.616672      2.964020      0.535344
  C       3.157688      3.285172      0.221660
  H       2.963697      3.129356     -0.846175
  H       2.503906      2.585911      0.749324
  H       6.551858      3.938545      0.371280
  H       5.528248      4.117234     -1.057609
  H       4.906437      2.015612      0.079478
  H       4.745440      2.861311      1.616581
  C       5.737823      6.578113      0.476267
  C       4.823919      7.538593      1.238541
  H       5.849674      6.879652     -0.574907
  H       6.736180      6.490037      0.908865
  C       3.427556      6.986384      0.942548
  H       4.955056      8.575650      0.933362
  H       5.035204      7.462930      2.307073
  H       3.018135      7.420235      0.025482
  H       2.697738      7.144228      1.735442
21
Coordinates from ORCA-job DBU E -383.515065012072
  N       5.015947      5.324333      0.575044
  C       3.664227      5.514951      0.690642
  N       2.741344      4.642466      0.576480
  C       5.522269      4.081851      0.041650
  C       4.615096      2.963182      0.533062
  C       3.156421      3.286408      0.219651
  H       2.964309      3.137505     -0.849771
  H       2.502577      2.583264      0.742453
  H       6.550184      3.938810      0.384240
  H       5.542331      4.109180     -1.057292
  H       4.901437      2.016659      0.069993
  H       4.745437      2.852559      1.613386
  C       5.739241      6.576300      0.477884
  C       4.822622      7.542018      1.231548
  H       5.867974      6.881222     -0.570612
  H       6.731631      6.480619      0.923880
  C       3.425100      6.984525      0.951470
  H       4.946395      8.573134      0.902567
  H       5.043378      7.492653      2.299609
  H       3.001716      7.420875      0.041896
  H       2.703264      7.135495      1.753354
21
Coordinates from ORCA-job DBU E -383.515132319613
  N       5.012273      5.325703      0.559253
  C       3.662715      5.515460      0.690380
  N       2.740744      4.640875      0.580099
  C       5.523255      4.079539      0.042006
  C       4.613099      2.963198      0.532980
  C       3.155466      3.288039      0.215727
  H       2.969232      3.146810     -0.855771
  H       2.500855      2.580895      0.731729
  H       6.547047      3.939382      0.397983
  H       5.555576      4.098339     -1.056614
  H       4.897865      2.016514      0.069375
  H       4.741060      2.851587      1.613275
  C       5.740338      6.575355      0.476085
  C       4.822029      7.544343      1.224078
  H       5.883236      6.883319     -0.569514
  H       6.726837      6.475594      0.934253
  C       3.422928      6.981397      0.960119
  H       4.939376      8.571340      0.880432
  H       5.051025      7.513589      2.290835
  H       2.983688      7.420618      0.059901
  H       2.714254      7.126114      1.774520
21
Coordinates from ORCA-job DBU E -383.515170383931
  N       5.008392      5.327696      0.543637
  C       3.661081      5.515124      0.688529
  N       2.739857      4.639110      0.582975
  C       5.523809      4.077702      0.042061
  C       4.611253      2.963971      0.534597
  C       3.154942      3.289579      0.211345
  H       2.976412      3.155444     -0.862336
  H       2.498884      2.578444      0.719370
  H       6.543931      3.940797      0.409437
  H       5.566500      4.086746     -1.056017
  H       4.896572      2.015404      0.075864
  H       4.734378      2.856913      1.615741
  C       5.740853      6.575147      0.471796
  C       4.821999      7.545497      1.218071
  H       5.893959      6.885756     -0.571206
  H       6.722818      6.472689      0.938700
  C       3.421413      6.978530      0.966883
  H       4.935021      8.570756      0.868608
  H       5.056529      7.523823      2.283611
  H       2.967858      7.421056      0.075923
  H       2.726438      7.117825      1.793543
21
Coordinates from ORCA-job DBU E -383.515190261557
  N       5.004830      5.329923      0.529783
  C       3.659600      5.514430      0.686152
  N       2.738575      4.637534      0.586138
  C       5.524266      4.076313      0.041856
  C       4.609817      2.965261      0.537307
  C       3.154886      3.290826      0.207523
  H       2.984078      3.162870     -0.868230
  H       2.496873      2.575871      0.707191
  H       6.541751      3.942859      0.417635
  H       5.574833      4.075892     -1.055658
  H       4.897058      2.013867      0.086281
  H       4.727386      2.865672      1.619773
  C       5.740688      6.575454      0.466335
  C       4.822288      7.545590      1.214331
  H       5.899947      6.888837     -0.574587
  H       6.720003      6.470122      0.937947
  C       3.420482      6.976720      0.971414
  H       4.933086      8.570965      0.865071
  H       5.060006      7.525029      2.279072
  H       2.956021      7.422579      0.088109
  H       2.736426      7.111396      1.807684
21
Coordinates from ORCA-job DBU E -383.515198146710
  N       5.002391      5.331704      0.519950
  C       3.658650      5.513940      0.684191
  N       2.737370      4.636536      0.589217
  C       5.524671      4.075382      0.041496
  C       4.609013      2.966628      0.540215
  C       3.155216      3.291604      0.205302
  H       2.990028      3.168083     -0.871969
  H       2.495313      2.573824      0.698243
  H       6.540894      3.944871      0.421795
  H       5.579685      4.067933     -1.055642
  H       4.898318      2.012556      0.096429
  H       4.722346      2.874167      1.623886
  C       5.740004      6.576110      0.461487
  C       4.822709      7.544776      1.213405
  H       5.901055      6.892519     -0.578107
  H       6.718771      6.467801      0.933644
  C       3.420105      6.976187      0.973359
  H       4.933160      8.571362      0.867744
  H       5.061709      7.519852      2.277784
  H       2.950234      7.424526      0.094291
  H       2.741256      7.107650      1.814409
21
Coordinates from ORCA-job DBU E -383.515202462032
  N       5.000963      5.332908      0.513411
  C       3.658166      5.513847      0.682804
  N       2.736537      4.636059      0.591884
  C       5.525005      4.074730      0.041067
  C       4.608703      2.967805      0.542840
  C       3.155709      3.292030      0.204583
  H       2.993917      3.171436     -0.873681
  H       2.494297      2.572482      0.692943
  H       6.540863      3.946541      0.423318
  H       5.582054      4.062580     -1.055885
  H       4.899482      2.011674      0.104422
  H       4.719602      2.880715      1.627344
  C       5.739047      6.576973      0.457764
  C       4.823124      7.543381      1.214501
  H       5.898930      6.896719     -0.580987
  H       6.718613      6.465957      0.927838
  C       3.420107      6.976407      0.973549
  H       4.934243      8.571539      0.873670
  H       5.062428      7.511829      2.278704
  H       2.949409      7.426308      0.095684
  H       2.741703      7.106089      1.815358
21
Coordinates from ORCA-job DBU E -383.515204449103
  N       5.000063      5.333721      0.508470
  C       3.657902      5.514074      0.681781
  N       2.736063      4.635834      0.594173
  C       5.525239      4.074226      0.040540
  C       4.608672      2.968747      0.545034
  C       3.156173      3.292258      0.204902
  H       2.996202      3.173600     -0.873950
  H       2.493789      2.571697      0.690481
  H       6.541031      3.947973      0.423771
  H       5.583278      4.058688     -1.056309
  H       4.900160      2.011184      0.110065
  H       4.718632      2.885197      1.630005
  C       5.738021      6.577929      0.454963
  C       4.823478      7.541679      1.216677
  H       5.895397      6.901374     -0.583077
  H       6.718895      6.464587      0.921924
  C       3.420297      6.976855      0.972880
  H       4.935593      8.571417      0.880812
  H       5.062763      7.503341      2.280733
  H       2.951715      7.427717      0.094258
  H       2.739540      7.105915      1.812996
