# avogadro generated ORCA input file 
# Basic Mode
# 
! RHF SP def2-SVP 

* xyz 0 1
   F        0.95083       -0.00982        0.10461
   C        2.28997       -0.10527        0.05162
   C        2.99414       -1.31402        0.04725
   C        4.41062       -1.27377        0.12090
   F        5.20525       -2.37443        0.19095
   C        5.07503       -0.08035        0.13857
   F        6.41666       -0.15417        0.29760
   C        2.36253       -2.48557        0.00936
   C        3.14840       -3.78664        0.00782
   N        3.80034       -4.86599        0.00654
   C        0.88245       -2.78025       -0.13486
   O        0.02890       -1.95287       -0.80311
   C       -1.29272       -2.24455       -1.12590
   C       -2.26792       -1.15118       -0.64238
   C       -2.21301       -1.02300        0.88823
   C       -1.99133        0.18850       -1.37534
   C       -2.93567        1.35355       -1.02329
   C       -4.40380        1.07399       -1.37596
   C       -5.27746        2.30053       -1.06910
   C       -6.77064        2.07141       -1.35301
   C       -7.07812        1.83078       -2.83123
   O        0.48506       -3.89173        0.19562
   C        2.95247        1.08429        0.03686
   F        2.15349        2.18443        0.01079
   C        4.36671        1.12368        0.04764
   C        4.99621        2.29242        0.01442
   C        4.21021        3.59341        0.00920
   N        3.55816        4.67270        0.00488
   C        6.47913        2.55111       -0.06406
   O        7.35927        1.77667       -0.75817
   C        7.40068        1.54081       -2.13528
   C        6.26354        2.23088       -2.91554
   C        7.46333        0.02184       -2.40196
   C        7.79473       -0.34258       -3.85790
   C        7.93788       -1.86267       -4.01267
   C        8.29485       -2.24447       -5.45371
   C        8.45104       -3.76344       -5.59383
   C        8.81361       -4.15180       -7.02404
   O        6.90715        3.60260        0.38861
   H       -1.61403       -3.22135       -0.70211
   H       -1.37466       -2.33287       -2.23047
   H       -3.28737       -1.49414       -0.92019
   H       -1.21600       -0.67495        1.22643
   H       -2.42301       -2.00724        1.35851
   H       -2.98249       -0.31385        1.25465
   H       -2.05640        0.01423       -2.47209
   H       -0.96110        0.52640       -1.15888
   H       -2.59865        2.24011       -1.60468
   H       -2.84329        1.60990        0.05297
   H       -4.46427        0.82531       -2.45595
   H       -4.77888        0.21461       -0.78171
   H       -4.92194        3.17583       -1.65621
   H       -5.17369        2.54332        0.01135
   H       -7.32405        2.98127       -1.03404
   H       -7.14120        1.21314       -0.75163
   H       -6.72823        2.69009       -3.44194
   H       -8.17512        1.72402       -2.96560
   H       -6.59977        0.89957       -3.19630
   H        8.35982        1.97664       -2.49072
   H        5.27769        1.80221       -2.64185
   H        6.40230        2.11383       -4.00880
   H        6.26295        3.32095       -2.70354
   H        8.27086       -0.39553       -1.76001
   H        6.50301       -0.45734       -2.12356
   H        8.75313        0.14293       -4.14560
   H        6.99135        0.01160       -4.53686
   H        6.98109       -2.35355       -3.72730
   H        8.74114       -2.22469       -3.33313
   H        9.25079       -1.75107       -5.73730
   H        7.49227       -1.89100       -6.13802
   H        7.49832       -4.26481       -5.31580
   H        9.25389       -4.12079       -4.91233
   H        8.01677       -3.82663       -7.72628
   H        8.92133       -5.25480       -7.09401
   H        9.77569       -3.68147       -7.31959
*

