# avogadro generated ORCA input file 
# Basic Mode
# 
! RHF SP def2-SVP 

* xyz 1 1
   O        2.66868       -0.32235       -1.40961
   C        2.72829       -0.41946       -0.19216
   C        1.92049       -1.50258        0.47457
   F        2.33317       -2.73738        0.01176
   F        2.06273       -1.46912        1.85036
   F        0.58416       -1.32890        0.16570
   C        3.58389        0.54252        0.61331
   S        4.86931       -0.41477        1.50456
  Mo        6.10935        1.62113        1.96388
   S        5.79216        1.85003       -0.43013
   C        4.17551        1.65730       -0.25598
   C        3.27472        2.65389       -0.94582
   F        1.94134        2.39311       -0.68555
   F        3.56664        3.92892       -0.49669
   F        3.47963        2.59911       -2.31188
   S        3.68837       -4.46162       -2.59770
   C        4.75365       -3.72168       -1.96055
   C        5.42685       -4.35605       -0.74192
   F        4.89375       -5.59625       -0.41792
   F        6.77600       -4.52800       -0.99494
   F        5.27361       -3.53016        0.35674
   C        5.18898       -2.35584       -2.48620
   C        4.55890       -1.68900       -3.70237
   C        4.93047       -0.32696       -4.27324
   F        5.35028       -0.49194       -5.58045
   F        3.80587        0.47727       -4.27117
   F        5.92810        0.33492       -3.58502
   O        3.66934       -2.27030       -4.30380
   S        6.25729       -1.67641       -1.79149
   S       -0.39621        0.66310        2.86866
   C        0.05056        1.95122        2.39016
   C       -0.83404        2.56871        1.29780
   F       -2.11968        2.73569        1.78560
   F       -0.40721        3.79786        0.83585
   F       -0.88427        1.71436        0.20842
   C        1.31757        2.59405        2.96860
   C        2.17523        1.92528        4.04012
   C        3.45752        2.48295        4.64583
   F        3.28424        2.61266        6.01168
   F        4.48374        1.58503        4.41610
   F        3.84889        3.71023        4.14800
   O        1.83955        0.83615        4.47820
   S        1.72741        3.88484        2.47469
   H        2.94304        1.02361        1.37690
*

