# avogadro generated ORCA input file 
# Basic Mode
# 
! wB97X-D3 OPT def2-TZVP def2/J CPCM
%cpcm
  epsilon 3
end
%pal
 nprocs 4
end

* xyz 0 1
   C        2.69581        6.93099        0.68865
   C        1.38458        7.29440        0.95731
   C        3.02440        5.59161        0.49358
   H        3.46332        7.69197        0.62535
   C        0.41064        6.30709        1.05254
   H        1.12696        8.33404        1.11363
   C        2.01806        4.59213        0.55161
   H        4.05725        5.38747        0.26742
   N        0.72819        4.98981        0.86462
   H       -0.60002        6.60359        1.30807
   C        2.27895        3.25942        0.31727
   C       -0.31197        3.98403        1.12869
   C       -0.15918        2.86340        0.14245
   H       -1.33751        4.41519        1.10405
   H       -0.13961        3.55424        2.14019
   N        1.22441        2.36804        0.20204
   H       -0.33816        3.29179       -0.86849
   H       -0.90766        2.05864        0.31674
   C        3.59643        2.74932        0.17926
   C        1.43545        1.02833        0.02311
   C        3.80523        1.38471       -0.00570
   H        4.48271        3.35760        0.24352
   C        2.72481        0.51764       -0.07260
   H        0.60149        0.34337       -0.07681
   H        4.81258        0.99750       -0.09214
   H        2.88377       -0.54277       -0.22059
*

