# avogadro generated ORCA input file 
# Basic Mode
# 
! wB97X-D3 OPT def2-TZVP def2/J CPCM
%cpcm
  epsilon 3
end
%pal
 nprocs 4
end 

* xyz 0 1
   C        3.56415        7.56100        1.64462
   O        2.76470        6.44499        1.77983
   H        3.30421        8.29106        2.43826
   H        3.39412        8.03761        0.65565
   H        4.63393        7.28297        1.75571
   C        2.79806        5.34330        0.98605
   C        1.91149        4.29895        1.26410
   C        3.68468        5.21455       -0.09912
   C        3.67683        4.05871       -0.88424
   H        4.38403        6.00173       -0.34671
   C        1.90073        3.14214        0.48013
   H        1.22334        4.38356        2.09609
   C        2.78779        3.00172       -0.61005
   H        4.36757        3.99232       -1.71537
   H        1.19667        2.36414        0.74151
   C        2.81793        1.76228       -1.50157
   C        4.16522        1.10008       -1.41076
   C        1.69168        0.80671       -1.21862
   H        2.67656        2.08862       -2.55468
   C        4.35414       -0.17928       -1.01839
   H        5.00705        1.71302       -1.70817
   C        1.86427       -0.47392       -0.82628
   H        0.69871        1.21426       -1.37151
   N        3.20849       -0.99200       -0.65335
   C        3.41099       -2.09648        0.28515
   H        3.47823       -3.07037       -0.23468
   H        2.59439       -2.13821        1.03679
   H        4.32815       -1.94411        0.89245
   C        5.76977       -0.71897       -0.99080
   C        6.87747        0.12973       -0.74789
   C        8.18128       -0.37429       -0.73138
   H        6.75119        1.18413       -0.54739
   C        6.03428       -2.08477       -1.23296
   C        7.34086       -2.58142       -1.21869
   H        5.24286       -2.77779       -1.46344
   C        8.41298       -1.72830       -0.96501
   H        9.01434        0.28856       -0.53523
   H        9.42368       -2.11553       -0.95420
   H        7.52186       -3.63114       -1.41141
   C        0.63206       -1.32258       -0.58927
   C       -0.58858       -0.74463       -0.16248
   C        0.65226       -2.71683       -0.81117
   C       -1.72404       -1.53242        0.04773
   H       -0.67657        0.31435        0.03425
   C       -1.67382       -2.90768       -0.17064
   H       -2.64555       -1.07363        0.38252
   C       -0.48796       -3.49819       -0.60274
   H        1.53513       -3.21499       -1.17418
   H       -0.45235       -4.56491       -0.78336
   H       -2.55515       -3.51500       -0.00968
*

