# avogadro generated ORCA input file 
# Basic Mode
# 
! RHF SP def2-SVP 

* xyz 0 1
   C        1.46492       -0.70039       -0.69067
   N        2.83747       -0.40985       -0.33215
   C        3.38323        0.87917       -0.19374
   C        2.73536        2.11200       -0.29029
   C        3.50545        3.27453       -0.11880
   C        4.88890        3.18057        0.13900
   C        5.51375        1.92366        0.22668
   C        4.72198        0.78199        0.05381
   N        5.09418       -0.58291        0.08472
   C        6.43985       -1.09434        0.25864
   C        3.89676       -1.39520       -0.13703
   C        3.63805       -2.33190        1.03871
   C        4.45597       -3.46088        1.20060
   C        4.25487       -4.34932        2.25888
   C        3.22572       -4.13914        3.20002
   N        3.01721       -5.05764        4.29957
   C        3.31753       -6.46435        4.13449
   C        3.76596       -7.24847        5.22249
   C        4.05612       -8.60589        5.05908
   C        3.90405       -9.21036        3.81178
   C        3.46229       -8.45833        2.72387
   C        3.17241       -7.09996        2.87961
   C        2.50891       -4.56900        5.56415
   C        1.69785       -5.38222        6.38907
   C        1.20792       -4.90667        7.60862
   C        1.51652       -3.61465        8.03255
   C        2.31533       -2.79403        7.23710
   C        2.80686       -3.26232        6.01542
   C        2.40671       -3.00287        3.03304
   C        2.60669       -2.11709        1.97148
   H        0.77639       -0.28312        0.07335
   H        1.30637       -1.79722       -0.76236
   H        1.23275       -0.24283       -1.67502
   H        1.67390        2.17580       -0.49008
   H        3.03474        4.24670       -0.18598
   H        5.47384        4.08186        0.26870
   H        6.57432        1.86364        0.42274
   H        7.17958       -0.27738        0.35834
   H        6.71920       -1.70944       -0.62192
   H        6.49979       -1.71011        1.17794
   H        3.99612       -1.98779       -1.07310
   H        5.25521       -3.66217        0.49852
   H        4.92218       -5.19634        2.34458
   H        3.91033       -6.81185        6.20154
   H        4.40247       -9.18945        5.90237
   H        4.12866      -10.26191        3.68821
   H        3.34118       -8.92897        1.75667
   H        2.81821       -6.55325        2.01606
   H        1.42479       -6.38441        6.08730
   H        0.58486       -5.54193        8.22497
   H        1.13647       -3.24920        8.97780
   H        2.55735       -1.79237        7.56837
   H        3.43517       -2.60176        5.43319
   H        1.59364       -2.79965        3.71705
   H        1.95194       -1.26187        1.89968
*

