2
Coordinates from ORCA-job I2 E -595.548342394353
  I       1.076500      0.087940     -0.045940
  I       3.728500      0.087940     -0.045940
2
Coordinates from ORCA-job I2 E -595.548346074860
  I       1.072191      0.087940     -0.045940
  I       3.732809      0.087940     -0.045940
2
Coordinates from ORCA-job I2 E -595.548348481096
  I       1.074117      0.087940     -0.045940
  I       3.730883      0.087940     -0.045940
2
Coordinates from ORCA-job I2 E -595.548348463914
  I       1.074132      0.087940     -0.045940
  I       3.730868      0.087940     -0.045940
