# avogadro generated ORCA input file 
# Basic Mode
# 
! wB97X-D3 OPT def2-TZVP def2/J CPCM
%cpcm
  epsilon 3
end
%pal
 nprocs 4
end 

* xyz 0 1
   C        1.59090        0.09222        1.03917
   N        2.62227       -0.06282       -0.07248
   C        3.49616        1.09208       -0.20633
   C        4.73229        0.67726       -0.00112
   N        4.70856       -0.72741        0.23287
   C        3.51039       -1.17943        0.17463
   C        2.94871       -2.63503        0.18319
   O        1.89736       -2.66808       -0.45902
   O        3.64270       -3.43810        0.78600
   C        5.91569       -1.53064        0.47974
   H        0.98295        0.95403        0.78232
   H        1.00063       -0.81880        1.05551
   H        3.07924        2.06674       -0.39727
   H        5.66449        1.21767        0.00816
   H        6.76804       -0.85926        0.46422
   H        6.00082       -2.28115       -0.30176
   H        5.81435       -2.01580        1.44571
*

