# avogadro generated ORCA input file 
# Basic Mode
# 
! wB97X-D3 OPT def2-TZVP def2/J CPCM
%cpcm
  epsilon 3
end
%pal
 nprocs 4
end


* xyz 0 1
   N        0.97115       -0.06047       -0.07424
   C        2.23212       -0.06047       -0.07424
   C        3.75212       -0.06047       -0.07424
   C        4.51212       -1.01687        0.83025
   N        5.14260       -1.81028        1.58060
   C        4.45369        0.85912       -0.79483
   C        5.93039        0.89174       -0.75424
   C        6.62777        1.87635       -1.34672
   C        5.94691        2.96206       -2.07578
   C        6.64252        4.01173       -2.59007
   C        8.05455        4.13566       -2.42655
   N        9.20302        4.21572       -2.28046
   C        6.00625        5.06337       -3.31185
   N        5.47241        5.90969       -3.89965
   C        4.48403        2.84102       -2.24750
   C        3.78597        1.85655       -1.65028
   H        6.49177        0.11561       -0.23868
   H        7.71347        1.84891       -1.28005
   H        3.94399        3.55279       -2.86827
   H        2.71147        1.81323       -1.81289
*

