20
Coordinates from ORCA-job TCNQ E -678.551463895618
  N       0.971150     -0.060470     -0.074240
  C       2.232120     -0.060470     -0.074240
  C       3.752120     -0.060470     -0.074240
  C       4.512120     -1.016870      0.830250
  N       5.142600     -1.810280      1.580600
  C       4.453690      0.859120     -0.794830
  C       5.930390      0.891740     -0.754240
  C       6.627770      1.876350     -1.346720
  C       5.946910      2.962060     -2.075780
  C       6.642520      4.011730     -2.590070
  C       8.054550      4.135660     -2.426550
  N       9.203020      4.215720     -2.280460
  C       6.006250      5.063370     -3.311850
  N       5.472410      5.909690     -3.899650
  C       4.484030      2.841020     -2.247500
  C       3.785970      1.856550     -1.650280
  H       6.491770      0.115610     -0.238680
  H       7.713470      1.848910     -1.280050
  H       3.943990      3.552790     -2.868270
  H       2.711470      1.813230     -1.812890
20
Coordinates from ORCA-job TCNQ E -678.608564650839
  N       1.128014     -0.061520     -0.084499
  C       2.293828     -0.057629     -0.077354
  C       3.761096     -0.049503     -0.071269
  C       4.464934     -0.995929      0.804455
  N       5.026760     -1.745703      1.498311
  C       4.464610      0.864879     -0.787771
  C       5.927356      0.896686     -0.747024
  C       6.619296      1.876853     -1.341340
  C       5.940595      2.949371     -2.066480
  C       6.631036      3.997868     -2.585763
  C       8.045254      4.123107     -2.428689
  N       9.184305      4.205803     -2.290563
  C       5.984959      5.045964     -3.308475
  N       5.449850      5.881237     -3.890978
  C       4.491596      2.831818     -2.231994
  C       3.799349      1.853047     -1.634280
  H       6.478145      0.120322     -0.228009
  H       7.701844      1.859748     -1.280598
  H       3.958533      3.545421     -2.850566
  H       2.726959      1.803150     -1.786803
20
Coordinates from ORCA-job TCNQ E -678.612875614418
  N       1.203483     -0.114761     -0.142203
  C       2.341275     -0.083246     -0.102564
  C       3.766204     -0.036909     -0.058290
  C       4.422968     -1.004375      0.761711
  N       4.954222     -1.772452      1.413496
  C       4.472384      0.885336     -0.761856
  C       5.924602      0.925236     -0.708664
  C       6.613969      1.896830     -1.315290
  C       5.938322      2.946657     -2.058195
  C       6.628750      3.983616     -2.601665
  C       8.047151      4.099909     -2.465732
  N       9.186365      4.178549     -2.346643
  C       5.976583      5.022889     -3.335186
  N       5.439807      5.849285     -3.924322
  C       4.496164      2.844730     -2.200724
  C       3.806718      1.874040     -1.593312
  H       6.462059      0.157101     -0.167526
  H       7.694673      1.898525     -1.251131
  H       3.969863      3.568406     -2.810291
  H       2.732757      1.825623     -1.721303
20
Coordinates from ORCA-job TCNQ E -678.613572441092
  N       1.197228     -0.150410     -0.183835
  C       2.343832     -0.107159     -0.130183
  C       3.768058     -0.046037     -0.069029
  C       4.419118     -1.029178      0.736220
  N       4.951456     -1.816047      1.381823
  C       4.474052      0.896601     -0.748980
  C       5.923522      0.948221     -0.678123
  C       6.612700      1.916942     -1.289586
  C       5.938066      2.953543     -2.049410
  C       6.631683      3.976290     -2.617396
  C       8.052419      4.082422     -2.498575
  N       9.193582      4.154650     -2.394004
  C       5.980124      5.007421     -3.363118
  N       5.444556      5.827806     -3.961871
  C       4.494744      2.863978     -2.175161
  C       3.805700      1.895235     -1.564162
  H       6.455016      0.188640     -0.119363
  H       7.692612      1.931722     -1.215817
  H       3.970172      3.597711     -2.773863
  H       2.729680      1.852637     -1.675256
20
Coordinates from ORCA-job TCNQ E -678.613735649915
  N       1.199228     -0.183990     -0.222649
  C       2.345708     -0.131577     -0.159036
  C       3.770669     -0.058740     -0.085424
  C       4.417508     -1.055662      0.708160
  N       4.947345     -1.853029      1.344308
  C       4.475085      0.909103     -0.734813
  C       5.922153      0.971096     -0.646504
  C       6.611099      1.938957     -1.259804
  C       5.936419      2.964263     -2.033815
  C       6.634007      3.968684     -2.631472
  C       8.056822      4.063134     -2.530828
  N       9.199951      4.128308     -2.442041
  C       5.984156      4.988977     -3.393357
  N       5.450825      5.801520     -4.005065
  C       4.491680      2.885868     -2.146071
  C       3.803119      1.917503     -1.533517
  H       6.446772      0.217340     -0.073125
  H       7.690400      1.966466     -1.178768
  H       3.969940      3.629034     -2.735696
  H       2.725435      1.877735     -1.630175
20
Coordinates from ORCA-job TCNQ E -678.613782620615
  N       1.204882     -0.216732     -0.262757
  C       2.349307     -0.152345     -0.186153
  C       3.773129     -0.064683     -0.095821
  C       4.418889     -1.077341      0.679068
  N       4.947934     -1.886324      1.299859
  C       4.474432      0.923849     -0.717411
  C       5.920122      0.992639     -0.615485
  C       6.609035      1.959295     -1.230450
  C       5.934090      2.974138     -2.018122
  C       6.635365      3.959410     -2.644193
  C       8.059603      4.043154     -2.558841
  N       9.204099      4.102330     -2.483933
  C       5.987883      4.968585     -3.422370
  N       5.457453      5.773079     -4.047195
  C       4.487635      2.906841     -2.117925
  C       3.799063      1.939716     -1.503375
  H       6.438247      0.243009     -0.030830
  H       7.687690      1.996845     -1.144885
  H       3.969179      3.657418     -2.700934
  H       2.720283      1.902106     -1.587938
20
Coordinates from ORCA-job TCNQ E -678.613785126544
  N       1.204583     -0.213859     -0.257933
  C       2.348953     -0.150912     -0.184271
  C       3.773090     -0.065414     -0.097307
  C       4.419374     -1.075646      0.680475
  N       4.948378     -1.882553      1.303385
  C       4.474213      0.921881     -0.720050
  C       5.920386      0.990507     -0.617947
  C       6.609218      1.957964     -1.231544
  C       5.934062      2.973582     -2.018542
  C       6.635209      3.959585     -2.643237
  C       8.059315      4.044245     -2.556827
  N       9.203691      4.104741     -2.481548
  C       5.987904      4.969480     -3.420569
  N       5.457840      5.774683     -4.044740
  C       4.487521      2.905778     -2.119407
  C       3.798837      1.938093     -1.506064
  H       6.438393      0.240271     -0.034105
  H       7.687822      1.995854     -1.145685
  H       3.969356      3.656492     -2.702480
  H       2.720175      1.900217     -1.591293
20
Coordinates from ORCA-job TCNQ E -678.613786569641
  N       1.204453     -0.213499     -0.256531
  C       2.348748     -0.150294     -0.183375
  C       3.772862     -0.064870     -0.096693
  C       4.419605     -1.075063      0.680826
  N       4.948629     -1.881990      1.303525
  C       4.473929      0.921560     -0.720327
  C       5.920475      0.989680     -0.618803
  C       6.609258      1.957418     -1.231831
  C       5.933984      2.973518     -2.018371
  C       6.635088      3.959757     -2.642482
  C       8.059187      4.044723     -2.555938
  N       9.203529      4.106230     -2.481163
  C       5.988114      4.969560     -3.420222
  N       5.458618      5.774867     -4.044720
  C       4.487423      2.905428     -2.119794
  C       3.798646      1.937620     -1.506910
  H       6.438328      0.239062     -0.035337
  H       7.687850      1.995564     -1.146022
  H       3.969554      3.656222     -2.703024
  H       2.720038      1.899496     -1.592499
