32
Coordinates from ORCA-job TAM E -556.788697122944
  C       4.085510      2.675640      0.509030
  C       3.396640      3.997990      0.186380
  C       3.192960      1.521970      0.061740
  H       4.248140      2.608110      1.607340
  H       5.071300      2.619000     -0.000770
  N       2.080040      4.049790      0.850470
  H       3.284440      4.101600     -0.917840
  H       4.043690      4.826290      0.550650
  N       1.878820      1.633590      0.717880
  H       3.689200      0.568890      0.350100
  H       3.072560      1.537100     -1.045660
  C       1.218150      2.927380      0.395300
  C       1.036750      0.431140      0.486340
  C       1.438930      5.351050      0.586640
  C       0.101160      5.421490      1.314070
  H       1.279670      5.497570     -0.506840
  H       2.082940      6.177540      0.960280
  C      -0.782950      4.273170      0.840790
  H      -0.395490      6.395260      1.114170
  H       0.273360      5.327090      2.408990
  C      -0.994710      1.836170      0.792770
  C      -0.333740      0.778370     -0.095410
  N      -0.100920      2.989220      1.079180
  H      -1.011500      4.392060     -0.243140
  H      -1.738710      4.312000      1.409070
  H      -1.256040      1.370190      1.767100
  H      -1.950920      2.142290      0.310130
  H       1.067320      3.009170     -0.709430
  H       0.890260     -0.069630      1.467580
  H       1.525810     -0.309410     -0.186510
  H      -0.201020      1.184570     -1.121340
  H      -0.975070     -0.125740     -0.174350
32
Coordinates from ORCA-job TAM E -556.797129855297
  C       4.061456      2.676074      0.504334
  C       3.367998      3.987040      0.192318
  C       3.167898      1.531459      0.071611
  H       4.232123      2.609060      1.582195
  H       5.026914      2.621789     -0.005378
  N       2.068048      4.031231      0.852429
  H       3.254676      4.096636     -0.901509
  H       3.978614      4.818869      0.551491
  N       1.871123      1.650556      0.725913
  H       3.629644      0.583989      0.358923
  H       3.053033      1.537262     -1.027310
  C       1.217104      2.922724      0.401766
  C       1.042712      0.459179      0.492080
  C       1.440022      5.320004      0.585966
  C       0.108174      5.400116      1.303152
  H       1.288413      5.465621     -0.498922
  H       2.097536      6.115898      0.943530
  C      -0.763348      4.250238      0.842571
  H      -0.381214      6.356023      1.097614
  H       0.274195      5.317790      2.380839
  C      -0.971451      1.851414      0.794057
  C      -0.311397      0.812430     -0.094397
  N      -0.080497      2.985357      1.082027
  H      -1.001211      4.367041     -0.230153
  H      -1.702970      4.259891      1.399659
  H      -1.246605      1.383985      1.747473
  H      -1.900676      2.185388      0.318417
  H       1.074396      3.012832     -0.702566
  H       0.894686     -0.051949      1.451616
  H       1.548502     -0.247888     -0.174076
  H      -0.179917      1.215964     -1.103839
  H      -0.941400     -0.075104     -0.177120
32
Coordinates from ORCA-job TAM E -556.798294083802
  C       4.064181      2.676499      0.499881
  C       3.365770      3.985110      0.198722
  C       3.167388      1.533663      0.074619
  H       4.246281      2.606613      1.573221
  H       5.023062      2.625218     -0.016992
  N       2.063045      4.025892      0.846580
  H       3.261563      4.105775     -0.894733
  H       3.955309      4.825786      0.564897
  N       1.867365      1.656392      0.715350
  H       3.607448      0.581457      0.370014
  H       3.067468      1.527491     -1.025674
  C       1.215744      2.921480      0.397693
  C       1.041763      0.462036      0.491246
  C       1.440443      5.316397      0.591854
  C       0.106753      5.403250      1.300733
  H       1.294960      5.474235     -0.491959
  H       2.114895      6.094944      0.948088
  C      -0.759649      4.249048      0.846638
  H      -0.380964      6.355332      1.086958
  H       0.266744      5.331015      2.377584
  C      -0.970147      1.852204      0.789401
  C      -0.314109      0.806995     -0.090068
  N      -0.075979      2.984887      1.070410
  H      -1.014547      4.374360     -0.221158
  H      -1.694498      4.235883      1.406447
  H      -1.259595      1.391030      1.739546
  H      -1.888648      2.203604      0.311467
  H       1.081749      3.023452     -0.709917
  H       0.900985     -0.056195      1.445966
  H       1.559809     -0.231543     -0.175356
  H      -0.197178      1.190639     -1.105814
  H      -0.940829     -0.082031     -0.150935
32
Coordinates from ORCA-job TAM E -556.798640775292
  C       4.068294      2.677030      0.498173
  C       3.367043      3.984747      0.202230
  C       3.170750      1.533124      0.077486
  H       4.263064      2.605785      1.570584
  H       5.022995      2.628121     -0.027949
  N       2.060358      4.024007      0.840492
  H       3.271346      4.112542     -0.892766
  H       3.944788      4.832730      0.573866
  N       1.865370      1.658670      0.704123
  H       3.597939      0.576920      0.382883
  H       3.085189      1.515280     -1.025197
  C       1.213836      2.920327      0.391172
  C       1.041997      0.461064      0.489383
  C       1.440310      5.317019      0.596770
  C       0.105980      5.406719      1.302956
  H       1.296741      5.486151     -0.487149
  H       2.127151      6.086124      0.953323
  C      -0.759723      4.250675      0.852904
  H      -0.381870      6.357489      1.080847
  H       0.262068      5.344436      2.382408
  C      -0.973343      1.853414      0.781711
  C      -0.318009      0.798403     -0.086641
  N      -0.075735      2.984683      1.058946
  H      -1.031266      4.385778     -0.211011
  H      -1.691623      4.222444      1.419501
  H      -1.277691      1.400409      1.731773
  H      -1.884216      2.216857      0.295627
  H       1.085799      3.030888     -0.719906
  H       0.908700     -0.061414      1.443508
  H       1.568079     -0.225932     -0.179633
  H      -0.214642      1.161234     -1.112112
  H      -0.943100     -0.094803     -0.123592
32
Coordinates from ORCA-job TAM E -556.798701025176
  C       4.069491      2.677810      0.498166
  C       3.367655      3.985027      0.201463
  C       3.172971      1.532092      0.079733
  H       4.271119      2.607713      1.569880
  H       5.021943      2.629451     -0.033351
  N       2.060050      4.024314      0.837722
  H       3.274570      4.113199     -0.894273
  H       3.944277      4.834395      0.573418
  N       1.864896      1.659054      0.699698
  H       3.598567      0.576460      0.391222
  H       3.093359      1.508038     -1.023776
  C       1.213102      2.920210      0.386976
  C       1.042562      0.460195      0.489520
  C       1.439933      5.317995      0.598509
  C       0.107078      5.406846      1.307400
  H       1.294168      5.491320     -0.485025
  H       2.128925      6.086051      0.954993
  C      -0.760284      4.251678      0.858235
  H      -0.381596      6.357173      1.082374
  H       0.263215      5.348818      2.387599
  C      -0.976196      1.855109      0.774143
  C      -0.318920      0.793841     -0.085726
  N      -0.076610      2.984121      1.053766
  H      -1.039843      4.392353     -0.203399
  H      -1.689686      4.220355      1.430060
  H      -1.290977      1.407736      1.723888
  H      -1.881890      2.221227      0.278756
  H       1.086445      3.032474     -0.724985
  H       0.911968     -0.061796      1.444756
  H       1.569213     -0.226980     -0.179937
  H      -0.219610      1.145733     -1.115779
  H      -0.943314     -0.101094     -0.111315
32
Coordinates from ORCA-job TAM E -556.798752145375
  C       4.070133      2.679162      0.496743
  C       3.367051      3.985290      0.197915
  C       3.174912      1.530580      0.083052
  H       4.280680      2.612125      1.567056
  H       5.019099      2.630848     -0.042053
  N       2.059888      4.024736      0.834644
  H       3.274683      4.111782     -0.898287
  H       3.944585      4.835246      0.568073
  N       1.864728      1.659843      0.696923
  H       3.601142      0.577442      0.402495
  H       3.100289      1.498330     -1.020847
  C       1.212573      2.920272      0.382325
  C       1.043704      0.459861      0.493266
  C       1.439040      5.318645      0.600503
  C       0.109526      5.405444      1.315736
  H       1.288182      5.495866     -0.481944
  H       2.128749      6.086940      0.956138
  C      -0.760577      4.252255      0.867049
  H      -0.380704      6.355226      1.089450
  H       0.268015      5.350839      2.395911
  C      -0.980035      1.858813      0.760300
  C      -0.317655      0.788799     -0.085225
  N      -0.077577      2.982732      1.048438
  H      -1.049639      4.400289     -0.191293
  H      -1.685960      4.218821      1.446175
  H      -1.313380      1.419813      1.707775
  H      -1.875701      2.227337      0.247265
  H       1.086915      3.032610     -0.729934
  H       0.914138     -0.058612      1.450823
  H       1.569760     -0.230248     -0.174350
  H      -0.218582      1.127189     -1.119999
  H      -0.941404     -0.107353     -0.099413
32
Coordinates from ORCA-job TAM E -556.798796443275
  C       4.070448      2.680985      0.491924
  C       3.364962      3.985662      0.191417
  C       3.175857      1.528959      0.085912
  H       4.290290      2.618265      1.560446
  H       5.015228      2.632259     -0.054613
  N       2.059715      4.024982      0.831540
  H       3.270413      4.109425     -0.904820
  H       3.944306      4.835913      0.558111
  N       1.865239      1.661175      0.697215
  H       3.604207      0.579359      0.413174
  H       3.103059      1.487948     -1.017826
  C       1.212438      2.920345      0.378609
  C       1.044978      0.460137      0.503242
  C       1.437745      5.318946      0.603305
  C       0.112849      5.402791      1.327446
  H       1.279809      5.499745     -0.477476
  H       2.127838      6.087597      0.957529
  C      -0.760381      4.252290      0.878210
  H      -0.379333      6.352414      1.103823
  H       0.276346      5.348188      2.406708
  C      -0.984405      1.864246      0.740235
  C      -0.313553      0.783373     -0.085051
  N      -0.078453      2.980502      1.043769
  H      -1.058540      4.408709     -0.176378
  H      -1.681221      4.216536      1.464836
  H      -1.344620      1.435762      1.682537
  H      -1.864500      2.235896      0.201988
  H       1.087678      3.031009     -0.733637
  H       0.912822     -0.050062      1.464902
  H       1.570842     -0.236670     -0.157689
  H      -0.208315      1.107278     -1.123847
  H      -0.937168     -0.113043     -0.090831
32
Coordinates from ORCA-job TAM E -556.798900369835
  C       4.070665      2.685452      0.474459
  C       3.358367      3.986957      0.172714
  C       3.176134      1.525386      0.089567
  H       4.311639      2.632992      1.538483
  H       5.005201      2.635394     -0.089793
  N       2.059160      4.025405      0.824186
  H       3.254941      4.104770     -0.923034
  H       3.942095      4.837895      0.530299
  N       1.867608      1.665100      0.701884
  H       3.610479      0.584183      0.432492
  H       3.101904      1.465014     -1.013076
  C       1.212705      2.920356      0.371591
  C       1.046838      0.462163      0.537753
  C       1.434006      5.319536      0.611867
  C       0.121196      5.394411      1.359130
  H       1.257770      5.509147     -0.464302
  H       2.125662      6.088220      0.962577
  C      -0.759229      4.251136      0.906014
  H      -0.375910      6.344670      1.148802
  H       0.299727      5.333134      2.435192
  C      -0.993856      1.879084      0.684248
  C      -0.300162      0.770128     -0.084414
  N      -0.080375      2.974117      1.033108
  H      -1.076523      4.428581     -0.139391
  H      -1.669979      4.207692      1.508384
  H      -1.426704      1.478720      1.607629
  H      -1.827592      2.259243      0.079689
  H       1.090408      3.025080     -0.740749
  H       0.901629     -0.018817      1.512385
  H       1.574297     -0.257214     -0.096995
  H      -0.170443      1.058190     -1.130939
  H      -0.925079     -0.125209     -0.075050
32
Coordinates from ORCA-job TAM E -556.799064867505
  C       4.069806      2.689041      0.452277
  C       3.351013      3.988681      0.153239
  C       3.173786      1.522439      0.088010
  H       4.328563      2.644620      1.512036
  H       4.995015      2.637744     -0.127004
  N       2.058709      4.025918      0.818110
  H       3.236067      4.102589     -0.941349
  H       3.939265      4.839635      0.502411
  N       1.870970      1.669397      0.709616
  H       3.614747      0.588193      0.440470
  H       3.091673      1.447723     -1.012979
  C       1.213703      2.920398      0.367465
  C       1.046355      0.466386      0.580629
  C       1.429867      5.320027      0.621869
  C       0.128777      5.384126      1.391262
  H       1.236036      5.517861     -0.449445
  H       2.123092      6.088299      0.969538
  C      -0.757772      4.248227      0.931649
  H      -0.372966      6.335803      1.199881
  H       0.323539      5.310116      2.463248
  C      -0.999579      1.894390      0.625209
  C      -0.284504      0.757865     -0.083283
  N      -0.081889      2.967029      1.024053
  H      -1.088727      4.445396     -0.105597
  H      -1.660851      4.195750      1.545126
  H      -1.504588      1.522704      1.522855
  H      -1.780814      2.282902     -0.042972
  H       1.093816      3.017911     -0.745055
  H       0.881329      0.023749      1.569935
  H       1.576988     -0.280728     -0.017512
  H      -0.122400      1.011580     -1.134119
  H      -0.912444     -0.134850     -0.064860
32
Coordinates from ORCA-job TAM E -556.799256953439
  C       4.067261      2.691717      0.426707
  C       3.341859      3.990200      0.131860
  C       3.168528      1.519581      0.083308
  H       4.338049      2.655003      1.482964
  H       4.984987      2.638492     -0.163050
  N       2.057962      4.026186      0.813102
  H       3.211669      4.099852     -0.960542
  H       3.935575      4.840088      0.471765
  N       1.875033      1.674102      0.722268
  H       3.617741      0.591885      0.440084
  H       3.071679      1.435094     -1.015133
  C       1.215634      2.920567      0.366408
  C       1.043720      0.473424      0.630054
  C       1.425086      5.319933      0.631512
  C       0.135692      5.372060      1.423110
  H       1.213803      5.523712     -0.434576
  H       2.118793      6.087953      0.976311
  C      -0.755931      4.243201      0.955418
  H      -0.370467      6.325370      1.257331
  H       0.349367      5.278748      2.489136
  C      -1.000617      1.910673      0.565114
  C      -0.265958      0.748672     -0.081816
  N      -0.082150      2.959169      1.018288
  H      -1.094663      4.457194     -0.075115
  H      -1.653314      4.181756      1.575937
  H      -1.574030      1.567321      1.431133
  H      -1.725264      2.305002     -0.162376
  H       1.097145      3.008330     -0.745641
  H       0.853698      0.074758      1.632869
  H       1.576188     -0.303549      0.075375
  H      -0.062025      0.974124     -1.131558
  H      -0.898468     -0.139700     -0.065537
32
Coordinates from ORCA-job TAM E -556.799294514791
  C       4.062633      2.690707      0.404806
  C       3.334447      3.991126      0.118812
  C       3.158406      1.519212      0.070435
  H       4.323482      2.654593      1.462510
  H       4.982504      2.635903     -0.177904
  N       2.057406      4.025917      0.814354
  H       3.188092      4.100854     -0.969985
  H       3.932556      4.837416      0.454880
  N       1.880051      1.677078      0.740546
  H       3.614462      0.591883      0.414165
  H       3.035709      1.443673     -1.024789
  C       1.218949      2.921165      0.375145
  C       1.040857      0.480130      0.670156
  C       1.422799      5.319436      0.635716
  C       0.137430      5.365368      1.436363
  H       1.205459      5.520611     -0.428220
  H       2.115666      6.086040      0.980092
  C      -0.754715      4.239860      0.960888
  H      -0.369071      6.320961      1.300083
  H       0.366705      5.244693      2.495180
  C      -0.995599      1.918679      0.535133
  C      -0.248747      0.746774     -0.080712
  N      -0.080829      2.954530      1.023786
  H      -1.082433      4.454788     -0.071532
  H      -1.654736      4.175611      1.574730
  H      -1.597453      1.585992      1.384099
  H      -1.693242      2.314042     -0.216926
  H       1.099873      2.998710     -0.735803
  H       0.827186      0.115814      1.679821
  H       1.575029     -0.317406      0.151705
  H      -0.002528      0.974254     -1.120279
  H      -0.883767     -0.137492     -0.092544
32
Coordinates from ORCA-job TAM E -556.799513630892
  C       4.061686      2.693090      0.386170
  C       3.329961      3.993335      0.104233
  C       3.156722      1.516343      0.068489
  H       4.344165      2.661624      1.438931
  H       4.971117      2.637922     -0.214343
  N       2.056996      4.027364      0.806847
  H       3.178664      4.103198     -0.984539
  H       3.930043      4.840902      0.435983
  N       1.881502      1.681913      0.740193
  H       3.614850      0.593114      0.422706
  H       3.033272      1.425857     -1.026183
  C       1.219189      2.921587      0.366944
  C       1.037210      0.488403      0.705803
  C       1.418274      5.320502      0.647272
  C       0.143439      5.353200      1.466082
  H       1.185715      5.533959     -0.411721
  H       2.114401      6.085984      0.989940
  C      -0.754101      4.235209      0.983238
  H      -0.367434      6.309176      1.342966
  H       0.383829      5.225046      2.522168
  C      -0.995578      1.930964      0.479669
  C      -0.239316      0.733817     -0.075418
  N      -0.082680      2.947676      1.007690
  H      -1.098949      4.473413     -0.039106
  H      -1.646659      4.157520      1.607960
  H      -1.659734      1.631200      1.294338
  H      -1.634258      2.331496     -0.322079
  H       1.104988      2.995848     -0.745928
  H       0.808508      0.162958      1.725835
  H       1.573662     -0.331499      0.224179
  H       0.025214      0.918698     -1.119374
  H      -0.878116     -0.148897     -0.064237
32
Coordinates from ORCA-job TAM E -556.799443555676
  C       4.066134      2.690680      0.403640
  C       3.346083      3.995723      0.130500
  C       3.163028      1.520554      0.062890
  H       4.356812      2.641070      1.457259
  H       4.976215      2.642924     -0.203330
  N       2.060851      4.030992      0.810407
  H       3.217647      4.124037     -0.963474
  H       3.937923      4.847086      0.480172
  N       1.878427      1.677109      0.714679
  H       3.607833      0.583744      0.410984
  H       3.059083      1.437997     -1.037792
  C       1.214933      2.920983      0.362342
  C       1.042045      0.479024      0.667919
  C       1.424897      5.325757      0.651556
  C       0.137748      5.363135      1.445304
  H       1.210774      5.549379     -0.413259
  H       2.128538      6.087545      1.000432
  C      -0.757795      4.246633      0.958459
  H      -0.368183      6.321775      1.292894
  H       0.351197      5.254634      2.513730
  C      -1.004942      1.909177      0.520709
  C      -0.259880      0.723656     -0.069809
  N      -0.090841      2.956636      0.992355
  H      -1.103454      4.487619     -0.066958
  H      -1.658133      4.168646      1.576904
  H      -1.631456      1.594020      1.364477
  H      -1.681044      2.315646     -0.245938
  H       1.109590      3.012144     -0.757362
  H       0.834554      0.133435      1.688742
  H       1.593737     -0.322891      0.162633
  H      -0.052170      0.899049     -1.130313
  H      -0.893572     -0.166997     -0.016043
32
Coordinates from ORCA-job TAM E -556.800017558035
  C       4.061464      2.690334      0.374122
  C       3.336184      3.997185      0.112843
  C       3.152570      1.518785      0.048702
  H       4.354637      2.642067      1.425516
  H       4.967361      2.642045     -0.235658
  N       2.060085      4.030125      0.810614
  H       3.189524      4.126338     -0.976788
  H       3.934260      4.843939      0.457053
  N       1.883708      1.681607      0.731056
  H       3.606053      0.585504      0.388134
  H       3.023507      1.439339     -1.048032
  C       1.219012      2.921779      0.367511
  C       1.035810      0.490461      0.721567
  C       1.420865      5.324235      0.661375
  C       0.141007      5.350509      1.469703
  H       1.195441      5.549684     -0.398978
  H       2.122418      6.085353      1.009750
  C      -0.756038      4.238635      0.973921
  H      -0.367475      6.309772      1.346901
  H       0.371599      5.216893      2.529738
  C      -0.995888      1.924320      0.467949
  C      -0.239596      0.717520     -0.067257
  N      -0.088181      2.948787      0.993483
  H      -1.097597      4.487387     -0.049172
  H      -1.655348      4.153821      1.590656
  H      -1.673515      1.633383      1.277066
  H      -1.620508      2.334588     -0.340586
  H       1.113826      3.002601     -0.750384
  H       0.796728      0.196363      1.750215
  H       1.586783     -0.339602      0.270969
  H       0.016531      0.874342     -1.119164
  H      -0.878647     -0.167176     -0.028114
32
Coordinates from ORCA-job TAM E -556.800378824112
  C       4.055951      2.687321      0.342429
  C       3.329746      3.999568      0.102583
  C       3.138875      1.518196      0.025785
  H       4.357156      2.630796      1.390607
  H       4.955884      2.642052     -0.274880
  N       2.061146      4.030347      0.815210
  H       3.168341      4.138694     -0.982962
  H       3.934251      4.840550      0.447301
  N       1.889335      1.685403      0.742197
  H       3.597919      0.582474      0.347335
  H       2.982959      1.450092     -1.067552
  C       1.222839      2.922722      0.374782
  C       1.028806      0.504247      0.775420
  C       1.418562      5.323826      0.676733
  C       0.141793      5.337919      1.491078
  H       1.187751      5.554562     -0.380709
  H       2.118871      6.083803      1.027603
  C      -0.755245      4.231534      0.982343
  H      -0.367669      6.298245      1.391339
  H       0.380744      5.182306      2.545546
  C      -0.983931      1.934060      0.418371
  C      -0.220278      0.706409     -0.062101
  N      -0.087484      2.941250      0.992105
  H      -1.088839      4.488561     -0.040593
  H      -1.657804      4.140276      1.592340
  H      -1.708922      1.664866      1.191511
  H      -1.555957      2.352252     -0.425398
  H       1.120342      2.997682     -0.743172
  H       0.755208      0.271440      1.810512
  H       1.584577     -0.352602      0.390606
  H       0.075066      0.836197     -1.107047
  H      -0.863413     -0.174129     -0.024612
32
Coordinates from ORCA-job TAM E -556.800634048904
  C       4.049470      2.681115      0.309667
  C       3.326913      4.002395      0.102106
  C       3.121061      1.519280     -0.006475
  H       4.361903      2.605732      1.353199
  H       4.942248      2.642666     -0.317775
  N       2.064420      4.031120      0.827437
  H       3.153295      4.160948     -0.978612
  H       3.939695      4.834161      0.453666
  N       1.895621      1.687916      0.749274
  H       3.583194      0.575729      0.285027
  H       2.934307      1.474391     -1.095796
  C       1.227144      2.924531      0.386465
  C       1.022726      0.519361      0.825098
  C       1.419306      5.324125      0.696550
  C       0.138982      5.327672      1.505089
  H       1.191920      5.560776     -0.360202
  H       2.116875      6.083077      1.054172
  C      -0.755448      4.226112      0.980472
  H      -0.369498      6.289333      1.419863
  H       0.375340      5.154363      2.557171
  C      -0.969501      1.936694      0.379044
  C      -0.202379      0.690959     -0.055252
  N      -0.088183      2.934926      0.992316
  H      -1.072946      4.487073     -0.046260
  H      -1.666264      4.132855      1.577002
  H      -1.731656      1.681823      1.119659
  H      -1.495964      2.365453     -0.489314
  H       1.128414      2.998843     -0.732151
  H       0.713816      0.352986      1.862481
  H       1.587669     -0.359874      0.514976
  H       0.122280      0.791043     -1.094414
  H      -0.848178     -0.186665     -0.009771
32
Coordinates from ORCA-job TAM E -556.800676947776
  C       4.047576      2.677652      0.298052
  C       3.328503      4.003716      0.108600
  C       3.114090      1.520354     -0.022034
  H       4.369485      2.589748      1.338061
  H       4.935509      2.644597     -0.337295
  N       2.066968      4.031769      0.836721
  H       3.152860      4.175059     -0.970209
  H       3.945713      4.829942      0.466745
  N       1.898254      1.687505      0.748144
  H       3.576698      0.571730      0.253578
  H       2.915557      1.488703     -1.109888
  C       1.228667      2.925786      0.392429
  C       1.022444      0.523812      0.837692
  C       1.421528      5.324807      0.706654
  C       0.135867      5.325881      1.505996
  H       1.200639      5.564566     -0.351171
  H       2.116946      6.083813      1.069717
  C      -0.756061      4.225447      0.974375
  H      -0.371611      6.288232      1.417769
  H       0.363348      5.151989      2.560375
  C      -0.965066      1.933649      0.370958
  C      -0.198647      0.682133     -0.051351
  N      -0.089541      2.933611      0.992690
  H      -1.064542      4.486041     -0.055515
  H      -1.672175      4.134358      1.563375
  H      -1.737642      1.681121      1.101988
  H      -1.477904      2.366922     -0.503092
  H       1.131614      3.004421     -0.726866
  H       0.702114      0.382540      1.875297
  H       1.593824     -0.361801      0.556613
  H       0.126692      0.767524     -1.091585
  H      -0.845126     -0.194708      0.007888
32
Coordinates from ORCA-job TAM E -556.800692458891
  C       4.047343      2.677019      0.292016
  C       3.328712      4.004424      0.109844
  C       3.112475      1.519824     -0.025879
  H       4.380428      2.585808      1.328549
  H       4.929575      2.646363     -0.352345
  N       2.067759      4.032032      0.839340
  H       3.152657      4.180668     -0.968518
  H       3.948159      4.828651      0.470196
  N       1.898760      1.688069      0.746179
  H       3.575658      0.570473      0.248259
  H       2.912024      1.488150     -1.113734
  C       1.228699      2.926490      0.392287
  C       1.022672      0.526645      0.844047
  C       1.421871      5.325093      0.712868
  C       0.135271      5.323418      1.510907
  H       1.201485      5.568989     -0.344486
  H       2.116746      6.083984      1.078728
  C      -0.756428      4.224356      0.975785
  H      -0.372938      6.285713      1.419557
  H       0.359060      5.152109      2.566933
  C      -0.963598      1.934390      0.359636
  C      -0.198137      0.676566     -0.047109
  N      -0.090629      2.932083      0.989334
  H      -1.065788      4.489538     -0.053081
  H      -1.672852      4.132172      1.564794
  H      -1.750563      1.690190      1.078570
  H      -1.458254      2.367528     -0.524871
  H       1.132782      3.007794     -0.727695
  H       0.699556      0.396924      1.882567
  H       1.595759     -0.362344      0.574416
  H       0.124435      0.746502     -1.089519
  H      -0.846118     -0.198702      0.027134
32
Coordinates from ORCA-job TAM E -556.800668262932
  C       4.048934      2.676020      0.299433
  C       3.332111      4.003928      0.122996
  C       3.113914      1.522545     -0.028305
  H       4.380781      2.577466      1.335606
  H       4.932099      2.649161     -0.343804
  N       2.068399      4.030498      0.847685
  H       3.160256      4.186486     -0.954968
  H       3.951579      4.825106      0.490104
  N       1.898247      1.684831      0.742363
  H       3.576632      0.570946      0.238554
  H       2.914240      1.499623     -1.116448
  C       1.227899      2.926477      0.396808
  C       1.027196      0.518671      0.824284
  C       1.426271      5.324747      0.711589
  C       0.131030      5.332084      1.494350
  H       1.218322      5.565080     -0.349025
  H       2.118895      6.083422      1.081983
  C      -0.755968      4.228006      0.961889
  H      -0.374348      6.294099      1.385591
  H       0.340312      5.173214      2.555197
  C      -0.966953      1.927302      0.388574
  C      -0.204523      0.678189     -0.048553
  N      -0.090445      2.935993      0.998404
  H      -1.054511      4.480725     -0.073235
  H      -1.677622      4.144692      1.543573
  H      -1.729348      1.666635      1.127879
  H      -1.491568      2.360900     -0.477551
  H       1.128365      3.014729     -0.722311
  H       0.712631      0.369071      1.862840
  H       1.603608     -0.362092      0.535335
  H       0.099704      0.761146     -1.095305
  H      -0.849558     -0.198782      0.029177
32
Coordinates from ORCA-job TAM E -556.800742055622
  C       4.047970      2.676880      0.294803
  C       3.329658      4.004283      0.114471
  C       3.113152      1.520970     -0.026330
  H       4.380412      2.583401      1.331186
  H       4.930465      2.647449     -0.349054
  N       2.067715      4.031152      0.842200
  H       3.154974      4.182644     -0.963637
  H       3.949024      4.827219      0.477470
  N       1.898425      1.687059      0.744929
  H       3.576320      0.571276      0.245979
  H       2.913328      1.491877     -1.114273
  C       1.228300      2.926374      0.393763
  C       1.024502      0.523381      0.836625
  C       1.423534      5.324821      0.712148
  C       0.133736      5.326858      1.504729
  H       1.207756      5.567346     -0.346327
  H       2.117547      6.083326      1.079988
  C      -0.756013      4.225542      0.970967
  H      -0.373556      6.288855      1.406556
  H       0.352267      5.160619      2.562485
  C      -0.964879      1.932319      0.370337
  C      -0.200587      0.677431     -0.047249
  N      -0.090307      2.933243      0.993571
  H      -1.060999      4.485619     -0.060353
  H      -1.674333      4.136830      1.557186
  H      -1.743143      1.682568      1.096574
  H      -1.470149      2.365170     -0.507987
  H       1.130274      3.010038     -0.725684
  H       0.705566      0.384294      1.875262
  H       1.597979     -0.362165      0.557566
  H       0.115166      0.752525     -1.091239
  H      -0.847523     -0.198284      0.028047
32
Coordinates from ORCA-job TAM E -556.800742029065
  C       4.047876      2.676859      0.293733
  C       3.329491      4.004443      0.114359
  C       3.112827      1.520988     -0.027025
  H       4.381104      2.583070      1.329817
  H       4.929866      2.647628     -0.350775
  N       2.067641      4.031058      0.842369
  H       3.154495      4.183450     -0.963547
  H       3.949055      4.826968      0.477833
  N       1.898498      1.687264      0.744877
  H       3.576095      0.571356      0.245190
  H       2.912534      1.491917     -1.114842
  C       1.228319      2.926438      0.393756
  C       1.024510      0.523755      0.837944
  C       1.423528      5.324843      0.712861
  C       0.133656      5.326539      1.505430
  H       1.207826      5.567858     -0.345481
  H       2.117492      6.083070      1.081264
  C      -0.755928      4.225301      0.971166
  H      -0.373748      6.288461      1.407361
  H       0.352037      5.160148      2.563157
  C      -0.964513      1.932749      0.368656
  C      -0.200412      0.676743     -0.046346
  N      -0.090287      2.932866      0.993716
  H      -1.060338      4.485571     -0.060241
  H      -1.674480      4.136477      1.556934
  H      -1.744863      1.684543      1.093097
  H      -1.466993      2.365487     -0.511303
  H       1.130022      3.010154     -0.725648
  H       0.705529      0.385673      1.876669
  H       1.597789     -0.362138      0.559762
  H       0.115504      0.750034     -1.090392
  H      -0.847552     -0.198652      0.030360
