# avogadro generated ORCA input file 
# Basic Mode
# 
! wB97X-D3 OPT def2-TZVP def2/J CPCM
%cpcm
  epsilon 3
end
%pal
 nprocs 4
end

* xyz 0 1
   C       -7.35492       -0.15222       -0.00155
   C       -7.33159       -1.51919       -0.00382
   S       -5.80456        0.71417       -0.00130
   H       -8.29177        0.38861        0.00005
   S       -5.75257       -2.33219       -0.00638
   H       -8.24946       -2.09165       -0.00408
   C       -4.77944       -0.79196       -0.00391
   C       -3.38773       -0.76821       -0.00406
   C       -2.63893        0.44577       -0.00215
   C       -2.59792       -1.95592       -0.00618
   N       -3.21929        1.67643       -0.00001
   S       -1.95513        2.72108        0.00153
   N       -0.65604        1.72020       -0.00035
   C       -1.19405        0.47045       -0.00235
   C       -1.15303       -1.93125       -0.00637
   C       -0.40423       -0.71726       -0.00447
   N       -3.13593       -3.20568       -0.00819
   N       -0.57267       -3.16191       -0.00854
   S       -1.83684       -4.20656       -0.01009
   C        0.98747       -0.69349       -0.00468
   S        1.96057        0.84676       -0.00234
   S        2.01262       -2.19959       -0.00743
   C        3.53961        0.03381       -0.00300
   C        3.56297       -1.33316       -0.00528
   H        4.49984       -1.87395       -0.00579
   H        4.45745        0.60631       -0.00165
*

