# avogadro generated ORCA input file 
# Basic Mode
# 
! RHF SP def2-SVP 

* xyz 0 1
   C        1.47188       -0.03390       -0.11523
   N        2.91909       -0.04392       -0.06705
   C        3.73662        1.10031       -0.03572
   C        3.35277        2.44088        0.03117
   C        4.36531        3.41480        0.04304
   C        5.72169        3.03249       -0.01462
   C        6.07669        1.67347       -0.08537
   C        5.04747        0.72433       -0.09346
   N        5.12675       -0.68672       -0.16493
   C        6.34257       -1.46494       -0.30211
   C        3.76804       -1.23006       -0.12601
   C        3.57943       -2.16503        1.06467
   C        4.16136       -3.43913        1.02700
   C        4.01571       -4.33204        2.09112
   C        3.27364       -3.98607        3.24463
   N        3.11950       -4.90999        4.35050
   C        4.02220       -6.03478        4.56389
   C        2.05011       -4.78480        5.33350
   C        2.68869       -2.69812        3.27084
   C        2.83922       -1.80806        2.20406
   H        1.06533        0.46578        0.78863
   H        1.07803       -1.07106       -0.16514
   H        1.13351        0.51831       -1.01678
   H        2.30994        2.72623        0.07332
   H        4.10289        4.46341        0.09557
   H        6.49444        3.79016       -0.00590
   H        7.11864        1.39223       -0.13095
   H        7.23918       -0.81879       -0.35814
   H        6.29251       -2.06981       -1.23130
   H        6.46988       -2.13398        0.57198
   H        3.53923       -1.77392       -1.06895
   H        4.72669       -3.75409        0.15871
   H        4.47838       -5.29787        1.97020
   H        4.87385       -6.07057        3.86411
   H        3.45994       -6.98997        4.49228
   H        4.47078       -5.95983        5.57746
   H        1.32627       -3.98195        5.11500
   H        2.48180       -4.61254        6.34228
   H        1.45747       -5.72421        5.35460
   H        2.12535       -2.33804        4.11620
   H        2.38171       -0.83411        2.29286
*

