# avogadro generated ORCA input file 
# Basic Mode
# 
! wB97X-D3 OPT def2-SVP def2/J CPCM
%cpcm
  epsilon 3
end
%pal
 nprocs 12
end
 

* xyz 0 1
   C        5.55498       -0.88329       -3.24743
   C        6.26532       -2.08630       -3.20807
   C        5.56965       -3.31898       -3.19861
   C        4.17242       -3.33312       -3.22864
   C        3.45302       -2.11475       -3.26851
   C        4.13992       -0.89760       -3.27784
   C        3.41507        0.01333       -2.50443
   C        4.09603        0.95020       -1.69074
   C        5.49327        0.96434       -1.66071
   C        5.89431        1.24398       -0.35138
   C        7.03457        0.60464        0.19137
   C        7.75942       -0.30630       -0.58204
   C        7.35326       -0.58951       -1.90807
   C        6.22737        0.04178       -2.44399
   C        7.37672       -1.90474       -2.38030
   C        7.80663       -2.95353       -1.53251
   C        7.11973       -4.17068       -1.52318
   C        5.99415       -4.35456       -2.36151
   C        4.85927       -5.00872       -1.87418
   C        3.73338       -4.37744       -2.41010
   C        2.56934       -4.21672       -1.62097
   C        1.85900       -3.01370       -1.66034
   C        2.30364       -1.95606       -2.48933
   C        2.28019       -0.64083       -2.01710
   C        1.81179       -0.36647       -0.70986
   C        2.48418        0.55860        0.09357
   C        3.63354        1.22111       -0.39997
   C        4.74494        1.40267        0.42780
   C        4.72116        0.92405        1.75967
   C        5.84705        0.29276        2.29559
   C        7.01109        0.13204        1.50647
   C        7.72143       -1.07097        1.54583
   C        8.18392       -1.34188        0.25506
   C        8.20767       -2.67389       -0.22319
   C        7.76863       -3.71821        0.59536
   C        7.09625       -4.64327       -0.20808
   C        5.94689       -5.30578        0.28546
   C        4.83549       -5.48735       -0.54230
   C        3.68611       -5.32865        0.23687
   C        2.54585       -4.68931       -0.30588
   C        1.82101       -3.77838        0.46753
   C        2.22717       -3.49516        1.79356
   C        2.20371       -2.17994        2.26579
   C        1.77380       -1.13114        1.41800
   C        1.37275       -1.41078        0.10868
   C        1.39651       -2.74279       -0.36957
   C        2.46070        0.08601        1.40867
   C        3.58627        0.26989        2.24700
   C        4.01077       -0.76569        3.08410
   C        3.31511       -1.99837        3.09356
   C        4.02544       -3.20139        3.13292
   C        3.35306       -4.12645        2.32948
   C        4.08716       -5.04901        1.54620
   C        5.48439       -5.03488        1.57623
   C        6.16536       -4.09800        2.38992
   C        5.44051       -3.18707        3.16333
   C        6.12741       -1.96992        3.15400
   C        5.40801       -0.75156        3.11413
   C        7.27679       -2.12862        2.37482
   C        7.30024       -3.44384        1.90259
*

