60
Coordinates from ORCA-job C60 E -2283.818105636683
  C       5.554980     -0.883290     -3.247430
  C       6.265320     -2.086300     -3.208070
  C       5.569650     -3.318980     -3.198610
  C       4.172420     -3.333120     -3.228640
  C       3.453020     -2.114750     -3.268510
  C       4.139920     -0.897600     -3.277840
  C       3.415070      0.013330     -2.504430
  C       4.096030      0.950200     -1.690740
  C       5.493270      0.964340     -1.660710
  C       5.894310      1.243980     -0.351380
  C       7.034570      0.604640      0.191370
  C       7.759420     -0.306300     -0.582040
  C       7.353260     -0.589510     -1.908070
  C       6.227370      0.041780     -2.443990
  C       7.376720     -1.904740     -2.380300
  C       7.806630     -2.953530     -1.532510
  C       7.119730     -4.170680     -1.523180
  C       5.994150     -4.354560     -2.361510
  C       4.859270     -5.008720     -1.874180
  C       3.733380     -4.377440     -2.410100
  C       2.569340     -4.216720     -1.620970
  C       1.859000     -3.013700     -1.660340
  C       2.303640     -1.956060     -2.489330
  C       2.280190     -0.640830     -2.017100
  C       1.811790     -0.366470     -0.709860
  C       2.484180      0.558600      0.093570
  C       3.633540      1.221110     -0.399970
  C       4.744940      1.402670      0.427800
  C       4.721160      0.924050      1.759670
  C       5.847050      0.292760      2.295590
  C       7.011090      0.132040      1.506470
  C       7.721430     -1.070970      1.545830
  C       8.183920     -1.341880      0.255060
  C       8.207670     -2.673890     -0.223190
  C       7.768630     -3.718210      0.595360
  C       7.096250     -4.643270     -0.208080
  C       5.946890     -5.305780      0.285460
  C       4.835490     -5.487350     -0.542300
  C       3.686110     -5.328650      0.236870
  C       2.545850     -4.689310     -0.305880
  C       1.821010     -3.778380      0.467530
  C       2.227170     -3.495160      1.793560
  C       2.203710     -2.179940      2.265790
  C       1.773800     -1.131140      1.418000
  C       1.372750     -1.410780      0.108680
  C       1.396510     -2.742790     -0.369570
  C       2.460700      0.086010      1.408670
  C       3.586270      0.269890      2.247000
  C       4.010770     -0.765690      3.084100
  C       3.315110     -1.998370      3.093560
  C       4.025440     -3.201390      3.132920
  C       3.353060     -4.126450      2.329480
  C       4.087160     -5.049010      1.546200
  C       5.484390     -5.034880      1.576230
  C       6.165360     -4.098000      2.389920
  C       5.440510     -3.187070      3.163330
  C       6.127410     -1.969920      3.154000
  C       5.408010     -0.751560      3.114130
  C       7.276790     -2.128620      2.374820
  C       7.300240     -3.443840      1.902590
60
Coordinates from ORCA-job C60 E -2283.902260432622
  C       5.552889     -0.873762     -3.274300
  C       6.273495     -2.094049     -3.234433
  C       5.580320     -3.322310     -3.225076
  C       4.162975     -3.336646     -3.255543
  C       3.446110     -2.122630     -3.295198
  C       4.142930     -0.887992     -3.304599
  C       3.407623      0.036103     -2.520005
  C       4.086176      0.969560     -1.709232
  C       5.503518      0.983877     -1.678776
  C       5.910343      1.267629     -0.350590
  C       7.046569      0.630664      0.190239
  C       7.781923     -0.293398     -0.594358
  C       7.377178     -0.575670     -1.915617
  C       6.235000      0.064645     -2.459252
  C       7.401010     -1.909898     -2.394686
  C       7.829448     -2.954957     -1.549936
  C       7.132573     -4.189687     -1.540531
  C       6.010985     -4.372881     -2.375916
  C       4.859710     -5.036464     -1.881566
  C       3.717558     -4.396092     -2.425214
  C       2.557657     -4.235976     -1.638887
  C       1.836973     -3.015587     -1.678745
  C       2.280065     -1.961671     -2.504753
  C       2.256305     -0.627427     -2.025692
  C       1.789548     -0.354000     -0.723165
  C       2.471692      0.584395      0.091849
  C       3.617006      1.244439     -0.399903
  C       4.744417      1.428639      0.439859
  C       4.720724      0.951805      1.767044
  C       5.862873      0.311432      2.310692
  C       7.022764      0.151303      1.524362
  C       7.743453     -1.069075      1.564217
  C       8.212641     -1.343934      0.254829
  C       8.236316     -2.671232     -0.221729
  C       7.790883     -3.730667      0.608648
  C       7.108745     -4.669059     -0.206380
  C       5.963433     -5.329131      0.285382
  C       4.836016     -5.513341     -0.554374
  C       3.670079     -5.352338      0.236070
  C       2.533834     -4.715348     -0.304771
  C       1.798486     -3.791286      0.479837
  C       2.203224     -3.509008      1.801129
  C       2.179398     -2.174781      2.280196
  C       1.750977     -1.129701      1.435415
  C       1.344105     -1.413420      0.107199
  C       1.367780     -2.740731     -0.369364
  C       2.447858      0.105034      1.425999
  C       3.569443      0.288234      2.261398
  C       4.000100     -0.762337      3.110580
  C       3.306912     -1.990621      3.119954
  C       4.027513     -3.210923      3.159827
  C       3.345402     -4.149330      2.344773
  C       4.076907     -5.068587      1.564271
  C       5.494260     -5.054270      1.594723
  C       6.172834     -4.120778      2.405514
  C       5.437521     -3.196681      3.190120
  C       6.134346     -1.962035      3.180711
  C       5.417465     -0.748007      3.141044
  C       7.300382     -2.123001      2.390253
  C       7.324145     -3.457240      1.911193
60
Coordinates from ORCA-job C60 E -2283.947127049056
  C       5.548025     -0.866346     -3.295519
  C       6.278381     -2.102967     -3.255158
  C       5.590307     -3.322105     -3.245961
  C       4.153881     -3.336596     -3.276863
  C       3.442261     -2.131574     -3.316101
  C       4.148503     -0.880429     -3.325575
  C       3.403278      0.056119     -2.530380
  C       4.076858      0.982564     -1.725627
  C       5.513258      0.997061     -1.694792
  C       5.925524      1.284759     -0.348686
  C       7.053398      0.652616      0.188155
  C       7.798726     -0.283877     -0.607092
  C       7.396979     -0.564156     -1.918510
  C       6.239380      0.084671     -2.469495
  C       7.421169     -1.916376     -2.404030
  C       7.846465     -2.953723     -1.565548
  C       7.140108     -4.205104     -1.556104
  C       6.026811     -4.386917     -2.385351
  C       4.860008     -5.059415     -1.884372
  C       3.702460     -4.410406     -2.435338
  C       2.551147     -4.251481     -1.654786
  C       1.820619     -3.014679     -1.695058
  C       2.260430     -1.968517     -2.514938
  C       2.236385     -0.616251     -2.029417
  C       1.773083     -0.344820     -0.736591
  C       2.464515      0.606161      0.089410
  C       3.601408      1.261186     -0.398674
  C       4.743959      1.447917      0.452438
  C       4.720421      0.974720      1.769845
  C       5.877947      0.325727      2.320809
  C       7.029263      0.166835      1.540284
  C       7.759790     -1.069969      1.580554
  C       8.235351     -1.348578      0.253558
  C       8.258873     -2.666109     -0.219441
  C       7.807369     -3.739837      0.622093
  C       7.115951     -4.690847     -0.203920
  C       5.979051     -5.345915      0.284175
  C       4.836479     -5.532641     -0.566942
  C       3.654894     -5.369454      0.234179
  C       2.527011     -4.737267     -0.302665
  C       1.781654     -3.800785      0.492572
  C       2.183433     -3.520504      1.803998
  C       2.159260     -2.168293      2.289507
  C       1.733986     -1.130948      1.451024
  C       1.321562     -1.418550      0.104921
  C       1.345045     -2.736069     -0.368075
  C       2.440356      0.120419      1.441579
  C       3.553629      0.302229      2.270804
  C       3.990101     -0.762559      3.131420
  C       3.302035     -1.981685      3.140638
  C       4.032396     -3.218311      3.181024
  C       3.341058     -4.169331      2.354991
  C       4.067179     -5.081769      1.580300
  C       5.503585     -5.067289      1.611138
  C       6.177164     -4.140811      2.415903
  C       5.431927     -3.204245      3.211099
  C       6.138159     -1.953076      3.201614
  C       5.426525     -0.748075      3.162327
  C       7.319987     -2.116132      2.400452
  C       7.344056     -3.468397      1.914930
60
Coordinates from ORCA-job C60 E -2283.958810097515
  C       5.542977     -0.861990     -3.308435
  C       6.280360     -2.110232     -3.267705
  C       5.597388     -3.320150     -3.258704
  C       4.147272     -3.334813     -3.290045
  C       3.440986     -2.138905     -3.328764
  C       4.153997     -0.875977     -3.338209
  C       3.401685      0.069388     -2.535352
  C       4.070229      0.988739     -1.736647
  C       5.520257      1.003422     -1.705590
  C       5.936384      1.294071     -0.346638
  C       7.055885      0.666869      0.186170
  C       7.808514     -0.278457     -0.616810
  C       7.409695     -0.556782     -1.918269
  C       6.240981      0.098031     -2.474508
  C       7.434173     -1.921875     -2.408400
  C       7.856385     -2.951440     -1.576280
  C       7.143107     -4.214754     -1.566905
  C       6.038133     -4.395189     -2.389974
  C       4.860164     -5.074199     -1.884340
  C       3.691503     -4.418941     -2.440464
  C       2.548834     -4.261135     -1.665633
  C       1.811194     -3.012629     -1.706118
  C       2.247831     -1.974493     -2.519873
  C       2.223808     -0.609510     -2.029516
  C       1.764256     -0.340321     -0.746447
  C       2.462017      0.620017      0.087334
  C       3.590321      1.270038     -0.397061
  C       4.743660      1.458843      0.462193
  C       4.720202      0.989418      1.769793
  C       5.888854      0.334240      2.325956
  C       7.031543      0.176573      1.551200
  C       7.769176     -1.071960      1.591657
  C       8.249461     -1.353299      0.252077
  C       8.272794     -2.660998     -0.217323
  C       7.816970     -3.745023      0.632154
  C       7.118694     -4.704981     -0.201809
  C       5.990184     -5.354877      0.282567
  C       4.836745     -5.543537     -0.576687
  C       3.643981     -5.378681      0.232149
  C       2.524469     -4.751358     -0.300614
  C       1.771758     -3.805965      0.502296
  C       2.170649     -3.527715      1.803707
  C       2.146075     -2.162651      2.293880
  C       1.723815     -1.133041      1.461800
  C       1.307190     -1.423254      0.102793
  C       1.330677     -2.731089     -0.366572
  C       2.437340      0.130080      1.452437
  C       3.542245      0.310486      2.275473
  C       3.982984     -0.764535      3.144162
  C       3.300006     -1.974395      3.153097
  C       4.037467     -3.222607      3.193757
  C       3.339435     -4.182576      2.359871
  C       4.060178     -5.088036      1.591050
  C       5.510259     -5.073506      1.622149
  C       6.178869     -4.154198      2.420869
  C       5.426472     -3.208729      3.223604
  C       6.139491     -1.945839      3.214228
  C       5.433121     -0.749965      3.175445
  C       7.332684     -2.110292      2.405350
  C       7.357041     -3.475515      1.915207
60
Coordinates from ORCA-job C60 E -2283.959011936536
  C       5.542282     -0.861318     -3.310390
  C       6.280696     -2.111270     -3.269591
  C       5.598401     -3.319943     -3.260625
  C       4.146321     -3.334577     -3.291957
  C       3.440749     -2.139845     -3.330603
  C       4.154695     -0.875209     -3.340136
  C       3.401265      0.071567     -2.536280
  C       4.069249      0.989850     -1.738333
  C       5.521309      1.004416     -1.707213
  C       5.938038      1.295578     -0.346397
  C       7.056409      0.669045      0.185912
  C       7.810146     -0.277581     -0.618220
  C       7.411632     -0.555694     -1.918296
  C       6.241314      0.100019     -2.475363
  C       7.436141     -1.922700     -2.409056
  C       7.857964     -2.951223     -1.577811
  C       7.143604     -4.216283     -1.568488
  C       6.039743     -4.396477     -2.390746
  C       4.860161     -5.076529     -1.884527
  C       3.689873     -4.420327     -2.441362
  C       2.548427     -4.262684     -1.667286
  C       1.809738     -3.012438     -1.707778
  C       2.245887     -1.975184     -2.520626
  C       2.221500     -0.608089     -2.029868
  C       1.762140     -0.339018     -0.748084
  C       2.461347      0.622367      0.086997
  C       3.588697      1.271508     -0.396884
  C       4.743666      1.460534      0.463577
  C       4.720204      0.991748      1.769934
  C       5.890497      0.335649      2.326827
  C       7.031999      0.178090      1.552824
  C       7.770652     -1.072193      1.593314
  C       8.251708     -1.353946      0.251902
  C       8.275000     -2.660339     -0.216967
  C       7.818527     -3.745894      0.633671
  C       7.119177     -4.707153     -0.201493
  C       5.991765     -5.356312      0.282367
  C       4.836747     -5.545264     -0.578114
  C       3.642369     -5.380268      0.231887
  C       2.524010     -4.753652     -0.300392
  C       1.770199     -3.807033      0.503708
  C       2.168769     -3.528929      1.803771
  C       2.144150     -2.161928      2.294595
  C       1.722338     -1.133417      1.463364
  C       1.305394     -1.424196      0.102442
  C       1.328667     -2.730630     -0.366401
  C       2.436822      0.131546      1.453976
  C       3.540646      0.311764      2.276195
  C       3.982000     -0.764736      3.146052
  C       3.299699     -1.973385      3.155019
  C       4.038173     -3.223294      3.195779
  C       3.339131     -4.184652      2.360792
  C       4.059138     -5.089107      1.592697
  C       5.511220     -5.074551      1.623823
  C       6.179212     -4.156233      2.421792
  C       5.425759     -3.209416      3.225611
  C       6.139733     -1.944784      3.216165
  C       5.434080     -0.750098      3.177431
  C       7.334613     -2.109464      2.406186
  C       7.359028     -3.476618      1.915406
60
Coordinates from ORCA-job C60 E -2283.959012049806
  C       5.542285     -0.861275     -3.310530
  C       6.280741     -2.111285     -3.269721
  C       5.598435     -3.319986     -3.260741
  C       4.146294     -3.334625     -3.292065
  C       3.440712     -2.139866     -3.330691
  C       4.154676     -0.875159     -3.340275
  C       3.401174      0.071716     -2.536421
  C       4.069207      0.989968     -1.738429
  C       5.521360      1.004515     -1.707305
  C       5.938122      1.295716     -0.346408
  C       7.056509      0.669182      0.185929
  C       7.810322     -0.277478     -0.618271
  C       7.411756     -0.555617     -1.918346
  C       6.241383      0.100139     -2.475483
  C       7.436256     -1.922715     -2.409116
  C       7.858080     -2.951245     -1.577868
  C       7.143682     -4.216397     -1.568567
  C       6.039807     -4.396582     -2.390836
  C       4.860168     -5.076708     -1.884623
  C       3.689803     -4.420461     -2.441474
  C       2.548349     -4.262797     -1.667384
  C       1.809618     -3.012467     -1.707874
  C       2.245746     -1.975173     -2.520703
  C       2.221324     -0.607960     -2.029952
  C       1.761853     -0.338794     -0.748190
  C       2.461200      0.622580      0.086988
  C       3.588630      1.271638     -0.396889
  C       4.743678      1.460647      0.463623
  C       4.720210      0.991925      1.770033
  C       5.890582      0.335779      2.326941
  C       7.032090      0.178198      1.552915
  C       7.770780     -1.072170      1.593398
  C       8.251898     -1.353932      0.251908
  C       8.275179     -2.660343     -0.216946
  C       7.818712     -3.745994      0.633737
  C       7.119275     -4.707289     -0.201492
  C       5.991824     -5.356429      0.282371
  C       4.836745     -5.545381     -0.578163
  C       3.642299     -5.380419      0.231896
  C       2.523928     -4.753801     -0.300413
  C       1.770044     -3.807162      0.503770
  C       2.168648     -3.529028      1.803837
  C       2.144048     -2.161928      2.294666
  C       1.722253     -1.133410      1.463410
  C       1.305301     -1.424268      0.102422
  C       1.328497     -2.730687     -0.366411
  C       2.436741      0.131676      1.454037
  C       3.540589      0.311865      2.276274
  C       3.981968     -0.764709      3.146160
  C       3.299650     -1.973381      3.155173
  C       4.038162     -3.223353      3.195945
  C       3.339057     -4.184789      2.360927
  C       4.059088     -5.089218      1.592791
  C       5.511256     -5.074655      1.623907
  C       6.179279     -4.156356      2.421906
  C       5.425774     -3.209468      3.225768
  C       6.139767     -1.944768      3.216280
  C       5.434106     -0.750052      3.177551
  C       7.334737     -2.109459      2.406273
  C       7.359168     -3.476705      1.915477
